--------------TurbSim v2.00.* User Time Series Input File-----------------------
Time series input from Y:/wind/windweb/MetData/135mData/M4Twr/20Hz/mat//2014/01/13/01134_17_40_00_013.mat. Using rotated series
--------------------------------------------------------------------------------
          3  nComp    - Number of velocity components in the file (1=u component only; 2=u & v components; 3=u,v,w) [if < 3 other components will be generated using values from input file]
          5  nPoints    - Number of time series points contained in this file (-)
PointID   Pointyi     Pointzi     ! PointID is my current thought for a way to specify order of importance
   (-)     (m)         (m)
    1      0.00000    76.00000
    2      0.00000   100.00000
    3      0.00000    50.00000
    4      0.00000    30.00000
    5      0.00000    15.00000
--------Time Series-------------------------------------------------------------
         Time     Point01u_076m Point01v_076m Point01w_076m Point02u_100m Point02v_100m Point02w_100m Point03u_050m Point03v_050m Point03w_050m Point04u_030m Point04v_030m Point04w_030m Point05u_015m Point05v_015m Point05w_015m
          (s)         (m/s)         (m/s)         (m/s)         (m/s)         (m/s)         (m/s)         (m/s)         (m/s)         (m/s)         (m/s)         (m/s)         (m/s)         (m/s)         (m/s)         (m/s)
       0.0000       25.0459        8.0468        0.6189       24.1227        9.5167        0.4842       21.2714        4.4386       -0.6171       14.5305        3.6875        2.6966       20.7693        8.9567       -1.3714
       0.0500       25.0451        7.6069       -0.0913       23.6168        8.6384       -0.3653       20.6433        4.6835        0.1616       14.1257        3.2146        0.1612       20.0105        9.0486       -1.1698
       0.1000       25.0159        7.2551       -0.3518       25.0272        9.1794       -0.9768       20.2610        5.6404        0.4808       14.2708        2.8380        1.7132       22.4271        8.3663       -1.7847
       0.1500       24.7807        7.4146       -0.4858       25.5697       10.2286       -0.6773       20.0048        5.8964        0.3003       14.2494        3.4515        3.0031       21.9817        7.9560       -1.9138
       0.2000       24.4108        7.3024       -0.7322       24.8923        9.8618        0.0834       19.3147        6.2560       -0.1811       13.4188        3.3189        1.1222       20.6532        7.5164       -1.0611
       0.2500       24.1231        6.6446       -1.2272       24.1748        9.1438        0.2441       19.5346        7.3214       -0.7606       13.9278        4.1596       -0.5514       21.3532        8.0427       -1.4425
       0.3000       25.4877        6.9926       -1.3539       24.6947        8.1691        0.1836       18.8000        8.4768       -0.5521       14.7851        5.4277       -0.6304       20.9374        7.9846       -1.5017
       0.3500       24.9656        7.7886       -0.4727       23.7413        7.8990        0.4846       18.0034        8.5507       -0.8337       15.2376        2.9818        0.1155       20.5958        8.0175       -0.9110
       0.4000       25.6790        8.7334       -0.4305       23.2640        7.8746        0.6151       18.5900        8.7282       -1.6226       16.4537        4.3671        0.2511       18.2300        6.9487       -0.7863
       0.4500       26.1561        8.3357        0.4578       23.6229        8.1862        0.4347       18.7972        7.8120       -2.2521       14.5506        4.1556        1.4568       18.4329        7.0345       -0.7567
       0.5000       25.4217        7.4884        0.2352       23.9667        8.3870        0.4844       20.5064        8.2098       -2.1187       13.9499        6.5294        1.0191       17.6554        6.7777        0.1848
       0.5500       25.2284        7.5476        0.3620       23.2647        8.3711        0.4851       20.1195        8.4703       -1.9495       15.2366        8.0074       -0.2845       16.8939        8.2331        1.1364
       0.6000       24.5738        6.7938        0.3507       23.6018        8.5593        0.0648       21.3634        9.5686       -2.4970       13.7822        8.4968        1.1869       16.8531        8.0800        0.3164
       0.6500       24.2616        7.0340        0.5554       24.0807        8.9852        0.2242       21.5718        8.5576       -1.9265       13.5727        7.9586        1.7643       18.3053        8.5870       -0.8064
       0.7000       24.8345        7.8686        1.1753       23.9653        8.0170        0.4944       20.4771        8.6896       -2.9688       14.8296        9.3855        0.8803       17.9208        8.2420       -1.0257
       0.7500       25.1289        8.1780       -0.1398       25.1110        8.4682        0.4231       22.3026        9.2596       -2.5751       14.2047        8.5614        1.2023       17.4006        8.6455        0.2754
       0.8000       25.7190        6.9697        0.5004       24.0032        7.9350        0.0843       23.5042        9.1032       -2.2827       14.9595        9.9071        2.8322       17.8009        9.4656        0.4446
       0.8500       25.5546        6.5580        0.0775       23.9007        8.2697        0.3344       23.6588        8.0617       -1.0823       12.8629        8.0441        3.4653       17.5578        9.1096       -0.4550
       0.9000       25.4690        7.5711       -1.1542       24.1904        7.7872        0.0941       23.5931        7.7807       -0.8325       13.5295        7.8282        2.1137       17.5811        8.8414       -1.1650
       0.9500       25.1540        7.3748       -0.9895       25.2680        7.8144       -0.5470       23.1752        7.6760       -1.8833       16.5038        5.9653        0.2418       16.3384        8.0187       -1.7525
       1.0000       24.6355        7.1395       -0.5383       24.7862        7.9576       -0.9865       22.8996        6.5673       -2.6739       16.6624        7.1890        0.4438       16.7341        7.6111       -2.1133
       1.0500       25.8624        7.2474       -0.6373       25.0019        7.7878       -1.0667       24.5297        2.9399       -1.3406       16.6568        6.7115        0.8138       15.5503        6.5213       -1.4510
       1.1000       25.6837        8.4933       -0.0403       23.8680        8.2696       -0.6255       25.1092        4.2059       -0.5194       15.9319        7.1408        0.0044       16.1151        5.8344       -0.9421
       1.1500       26.3583        8.1467       -0.5888       23.6694        7.5160       -0.3453       25.7584        5.6990       -2.4081       15.1574        5.2194       -0.7556       16.4304        5.7595       -1.1427
       1.2000       25.8254        6.2727        0.1321       21.9315        6.4834        2.2965       25.6090        5.3547       -1.8184       15.2200        5.9988        0.1653       16.0932        5.6344       -0.9820
       1.2500       26.2313        6.0944       -0.6310       22.7288        6.5313        2.8757       25.2397        5.1096       -0.7692       15.9018        6.2134       -1.0161       15.7415        5.4613       -0.9313
       1.3000       26.8737        6.7722       -0.1800       25.2019        6.7673        1.1430       25.6177        5.7538       -1.1584       18.7759        6.7717       -1.4792       15.5210        5.2199       -1.2709
       1.3500       27.5494        7.0586        0.2817       24.6853        6.1072        0.1936       25.0332        5.0953       -1.6896       17.0454        6.7971       -1.2414       15.8865        5.4409       -1.5616
       1.4000       26.2544        6.7912        0.8596       24.0933        6.3606        0.6742       26.7851        5.3808       -1.7660       17.1740        7.9477       -0.8197       15.0953        5.4463       -1.5601
       1.4500       27.6686        6.9724        0.0737       22.6749        5.6899        2.0858       27.1522        4.4929       -2.1753       17.2807        6.9753       -1.3484       16.3892        4.9040       -4.3226
       1.5000       28.2197        7.2723        1.3333       24.4061        6.6877        1.8539       26.7189        5.7201       -0.4862       16.4713        7.1756       -1.6588       17.2489        4.6795       -5.3544
       1.5500       26.7914        7.2835        1.4089       25.4947        6.9616        0.7327       25.5359        5.3710       -0.3986       15.9342        6.9445       -1.3757       18.5081        5.4015       -4.4669
       1.6000       25.4874        8.1637        0.9265       25.4307        8.2073       -0.4572       24.7403        5.3817        0.0098       15.6152        6.8755       -1.0698       19.1719        3.7147       -1.1282
       1.6500       25.8554        8.0701        0.6127       24.4564        7.5292       -0.7562       24.3815        5.3964        0.3591       15.7908        6.7048       -0.9575       21.7630        3.2436        2.0267
       1.7000       25.9074        7.5145        0.4736       23.9698        6.7205       -0.9056       24.1415        5.0075        1.1986       15.5639        5.8054       -1.4704       21.4649        3.1546        1.7873
       1.7500       24.9539        7.2127       -0.1928       23.6261        4.6191       -0.2453       24.8873        4.9254        1.6901       15.0887        5.1470       -0.8465       20.8606        2.3342        0.8385
       1.8000       25.6494        7.0692        0.0091       23.7364        4.3287        1.1146       24.3165        4.6789        2.2590       15.8445        4.9220       -0.6368       20.4409        2.6050        1.1593
       1.8500       26.2988        7.3200       -0.3498       23.5894        3.8885        0.7148       24.3307        4.2143        2.4690       16.2873        5.1419       -0.7011       21.7710        2.0322        0.1467
       1.9000       25.5587        7.9182        0.0176       24.1917        3.7015        1.3041       24.2820        3.6934        1.9889       15.5675        4.8125       -0.8303       21.8304        1.8728        0.3265
       1.9500       25.5035        7.7178       -0.0234       23.4771        2.9740        1.1149       24.3180        4.8814        0.7990       16.1491        5.0919       -0.9529       22.3042        2.4643        0.2256
       2.0000       25.0791        7.1427        0.1594       24.0192        4.1182        1.4543       25.5031        5.5091        0.6914       14.6697        5.7483       -0.4718       21.9989        2.6598        1.1162
       2.0500       25.3394        7.5658        0.3238       22.3917        4.8442        2.6861       23.9458        4.6772        0.9482       15.2397        5.2366       -1.0346       22.3549        3.1968        1.3555
       2.1000       25.3720        7.7023       -0.0857       21.8293        4.7594        2.7667       23.9662        4.5672        0.7583       14.6714        4.8152       -0.5118       20.8789        2.4898        1.5184
       2.1500       24.8032        8.3610        0.1846       24.1944        3.4802        2.8641       23.4790        4.9505        1.2473       15.3198        4.9915       -0.5135       20.4088        2.6355        1.4394
       2.2000       25.9341        9.0266       -0.3561       25.3226        5.0444        3.0329       23.0835        4.6410        0.8365       15.5644        5.1731       -0.6104       20.8283        3.2285        1.0985
       2.2500       24.9188        8.1861       -0.4435       24.5809        3.3681        3.0337       23.5412        3.7661        0.7574       16.3007        4.8291       -0.5609       20.7921        3.0659        0.8986
       2.3000       25.0046        8.3590        0.2481       25.0036        3.8065        3.9233       24.3196        3.5998        0.8290       16.0751        4.6132       -0.1738       19.6276        2.2078        0.8209
       2.3500       24.7765        8.0442        0.2842       24.9138        3.2906        3.4434       24.7357        4.1949        1.3098       14.8809        4.5569        1.0310       19.9933        3.4096        1.0902
       2.4000       25.2048        7.2712       -1.7988       23.4818        3.0911        3.0649       23.6435        3.8587        1.6176       15.2158        5.4580        0.5153       20.7784        3.4136       -0.2014
       2.4500       26.1114        7.7869       -1.6132       23.3110        3.2231        3.6151       23.6884        3.6294        0.9677       15.7201        6.3181        1.1618       19.2094        4.1114        0.4718
       2.5000       26.6753        7.6152       -1.8236       24.1700        4.8019        3.5342       23.5770        4.1220        1.3575       15.3949        6.9225        0.7476       18.8308        5.4846        1.6525
       2.5500       25.3460        7.0054       -1.4063       24.4508        3.6616        3.8739       23.6664        4.3375        1.6077       15.8494        6.2472       -1.1768       19.2618        7.0302        2.3517
       2.6000       25.8357        7.8569       -1.8580       24.1978        3.7869        4.4141       23.6980        3.9431        1.2777       16.5913        4.7139       -1.8473       19.5530        7.1602        1.3611
       2.6500       25.6910        8.1166       -1.3004       21.1945        4.5224        5.4973       23.6535        3.2958        1.1077       15.7516        4.5469       -1.2480       18.9824        7.6855        0.0822
       2.7000       25.2830        7.8329       -1.3274       23.2359        3.4504        5.4252       23.2871        3.0191        1.2869       15.5738        5.2208       -0.1802       18.3903        8.0612        2.9134
       2.7500       25.0889        7.4111       -1.6707       21.0388        3.9841        5.4175       24.1227        2.6491        0.4286       14.9849        6.1872       -0.7678       19.1241        6.1143        3.7219
       2.8000       25.2281        6.6799       -2.6185       20.7425        3.0499        5.1778       24.6501        2.7832       -0.0103       14.8407        5.9098        0.7605       20.6923        6.1633        2.3688
       2.8500       25.1434        7.6425       -3.4701       20.6216        2.8722        3.7479       22.8986        3.7162        0.2261       17.0850        6.7445        0.4292       21.5325        6.3145        2.5871
       2.9000       24.9353        8.2359       -3.6837       21.0779        2.7415        4.0375       22.6272        3.6140        0.2556       15.9737        5.5827        1.6651       22.0145        5.0111        2.0462
       2.9500       26.6996        9.0580       -1.6832       19.4663        4.1381        5.2792       21.8591        3.8377        0.2340       14.4298        4.9349        2.6153       21.5612        4.7683        2.3471
       3.0000       25.9020        8.9728        1.4036       20.9478        4.2810        4.4376       21.3171        4.2853        0.0129       17.8404        4.3265        2.4291       21.1454        3.8686        1.0079
       3.0500       26.6415        7.9414        1.4163       20.2193        5.4287        2.3884       21.8270        4.5739        0.5940       18.4211        4.6153        2.1165       20.7657        3.4827        0.9187
       3.1000       26.8595        6.1782        2.4802       22.9705        4.8817        2.9354       21.6455        4.7188       -0.0464       16.7642        5.3725        1.2452       20.5832        3.2868        1.3290
       3.1500       27.1553        5.4009        0.4750       23.2341        5.3193        2.9352       21.2703        4.5462        0.9829       17.0783        6.5897        1.9093       20.8024        2.7815        1.3286
       3.2000       26.7007        6.6579       -0.1029       22.6877        5.2504        3.2357       20.4041        4.1238        0.7311       17.7054        6.3006        1.5173       21.2018        2.4815        1.4578
       3.2500       28.5747        5.6665        1.0393       20.8943        5.3717        3.4177       18.2549        6.2851        0.6568       18.6166        7.2092        2.1790       21.5591        2.4333        0.5271
       3.3000       27.7934        5.6095        2.5862       19.5477        5.3591        3.9391       16.7213        6.0713        1.0137       17.8034        7.3241        2.0386       21.1569        2.6572        0.8879
       3.3500       27.4574        5.8020        3.3105       19.6904        5.7772        3.1189       16.4239        5.6074        1.9031       19.0635        8.2956        1.0647       21.3661        3.0122        0.6275
       3.4000       26.1091        6.3083        3.2875       20.2900        5.8749        2.3883       16.4561        5.4062        2.3532       19.3198        8.1361        2.0180       20.7021        3.8001        1.2688
       3.4500       26.1434        6.2303        4.1482       19.1684        5.1044        2.9795       15.1004        5.0568        3.3404       19.6695        8.0697        2.2225       19.9010        3.5141        1.0004
       3.5000       26.8231        5.8399        4.8399       17.3409        5.3615        4.4315       15.0294        5.4465        2.8803       19.0527        7.9257        2.1846       19.0922        2.7026        0.7620
       3.5500       25.5198        5.4898        4.5275       16.8161        5.2263        3.9520       17.8760        5.4607        3.3460       18.3040        7.8614        1.9550       19.9581        3.5350        1.4203
       3.6000       24.8667        6.5942        4.4564       16.4736        4.8674        4.4124       17.4629        5.0587        2.4252       18.3778        7.9291        1.7759       20.7866        4.6636        0.9186
       3.6500       24.5106        6.8698        4.3202       17.9459        5.1335        4.3708       16.7320        5.4990        1.8337       18.0639        7.8063        1.5119       19.8211        4.6568        2.1305
       3.7000       25.0399        6.1788        4.5493       18.8302        5.4855        4.7599       15.5787        5.5783        2.6014       18.3339        7.5929        1.2353       18.9153        3.8515        2.5923
       3.7500       23.8717        5.9074        4.0093       18.1481        5.3495        5.1206       16.2411        4.9518        3.0327       18.2585        7.6389        0.8843       18.9517        3.6629        1.8323
       3.8000       25.3263        7.1393        2.5339       18.8213        5.8523        3.9399       17.5131        4.7790        3.2553       19.1896        7.4598        1.0463       19.5141        2.3686        0.5411
       3.8500       23.9961        7.0509        1.4410       19.7693        5.9515        3.7489       18.6156        3.6124        2.8575       18.5297        8.0518        0.6078       18.4734        3.7326       -0.4668
       3.9000       24.4467        7.0858        1.6888       21.6300        6.0013        2.2269       18.9565        3.8469        1.9682       19.1355        8.2635        0.0555       18.4740        3.9035       -0.4668
       3.9500       23.5246        6.7692        1.9830       21.7093        5.9542        2.2068       16.5741        4.7240        2.3034       20.2081        7.1271        0.2893       18.5828        3.9008        0.1130
       4.0000       23.8575        7.4909        1.6087       22.9872        7.1365        1.6854       17.3561        4.5482        2.3050       20.2782        6.1825       -0.6299       17.2164        4.0863        1.8457
       4.0500       23.5745        7.0961        2.1739       23.0409        7.8198        1.7054       18.7539        3.7284        2.7078       19.8053        5.7184       -0.5860       17.0413        4.6183        2.1761
       4.1000       24.5202        6.8469        1.7500       22.5025        7.2576        1.4159       17.9132        6.1138        0.7461       19.7922        5.3196       -0.9662       17.4417        4.8310        1.8653
       4.1500       24.2701        6.3795        0.6756       23.5633        7.3954        0.4248       17.7089        6.2294        1.0257       19.2552        3.9402       -1.2831       15.9508        4.8004        2.5982
       4.2000       25.0079        7.5558        0.6682       23.7127        7.6364       -0.7654       17.3715        5.9855        1.9150       17.8031        5.7387       -1.3517       16.3108        4.1226        3.6575
       4.2500       24.3244        6.8900        1.1266       24.1429        6.8952       -0.9358       18.0913        4.3327        1.1864       17.8908        6.6640       -0.6305       15.2517        4.7961        4.1996
       4.3000       24.2012        7.2829        1.3745       24.0948        6.9425       -1.3658       18.2365        3.7465        1.5567       17.8057        7.8455       -0.1116       15.6888        6.4085        4.2788
       4.3500       23.5000        7.1069        1.3425       23.7619        7.1148       -1.3854       17.8732        4.3242       -0.3440       17.0612        7.5665        1.1190       15.5756        6.9964        3.3090
       4.4000       23.6393        7.7076        1.1549       24.2975        6.8738       -1.3660       18.1687        4.0729        0.7066       16.8760        7.9048        1.2666       14.8332        8.2470        2.4605
       4.4500       24.4903        8.0732        0.8894       24.2141        7.0885       -1.4659       19.8543        3.4349       -0.7400       16.3575        8.0470        0.5499       15.8854        8.3705        2.2284
       4.5000       24.1688        7.3199        0.6339       24.3864        6.8616       -1.0661       20.3627        3.0493       -0.6890       16.3193        8.2045        0.8394       15.3395        8.2321        2.2595
       4.5500       24.3236        7.1490        0.1164       24.3693        6.5073       -0.8361       18.6875        3.1150        1.7776       16.7683        7.7510        1.4953       14.5547        7.1841        2.2210
       4.6000       24.1809        7.0260        0.4740       24.6298        6.3631       -0.3463       18.2806        3.9982        1.5968       16.9107        8.3103        1.4371       15.7566        4.6643        2.9086
       4.6500       23.4400        6.4760        0.6314       24.3316        7.0542       -1.1860       18.5809        3.0856        1.8474       18.7426        9.9157        2.0806       16.1909        4.1979        0.3078
       4.7000       22.9001        6.2212        0.8822       24.6482        7.5206       -1.8064       18.3247        4.1106        1.0969       17.9762        8.9023        2.1108       15.9058        2.4925        0.3283
       4.7500       23.3702        7.2274        0.8302       24.9955        6.9625       -1.7467       21.0803        3.2890        1.4325       17.9094        8.0059        1.4399       15.4089        0.9319        1.2993
       4.8000       23.9715        6.8222        0.2004       24.2203        7.1012       -1.5759       22.1722        3.5081        1.8847       18.6125        7.7939        0.4388       15.3990        1.4821        2.2793
       4.8500       24.8967        6.3390        0.8964       24.6714        7.9824       -1.7464       22.5807        2.2925       -0.2345       19.4717        8.1545        1.2499       15.2732        1.6804        2.8196
       4.9000       25.0249        4.7191        1.1186       25.6381        8.7110       -2.4474       22.2840        3.1735       -1.6551       17.2495        7.5600       -0.9788       15.3993        2.1118        1.8393
       4.9500       26.9377        4.5753       -0.3089       26.3903        8.1105       -2.5082       22.7230        2.2061       -1.6842       17.9393        7.2781       -2.3200       14.9587        2.2364        1.9202
       5.0000       25.7839        4.3012       -0.3886       26.0071        6.7774       -2.8478       21.3945        1.2060        1.3031       17.9722        5.3245       -0.6295       15.1498        1.3789        2.5498
       5.0500       25.2333        3.7201       -0.7781       26.2304        7.0757       -5.6981       21.4436        0.5085        1.2232       15.8667        6.5007       -0.4165       15.3740        1.5793        2.4794
       5.1000       25.7765        3.2444       -0.8788       24.9173        7.2119       -5.7866       20.4582        0.4043        0.6512       15.9413        7.0554       -0.8556       15.1614        0.9680        1.5098
       5.1500       25.4675        2.9566       -0.4041       25.6848        7.5033       -5.3775       20.2690        2.2228       -1.2692       15.9738        8.3401       -0.7751       14.9944        1.3865        0.8801
       5.2000       25.3627        3.7040       -0.5559       28.7077        5.8128       -4.1207       20.7355        1.6394       -1.8282       17.5094        7.6439       -0.3954       15.2815        1.7061        1.0296
       5.2500       24.6861        5.4168       -0.4575       29.1920        5.9763       -3.0012       21.2848        1.5781       -3.1271       14.1520        6.5361        0.7916       15.8187        1.7239        1.0185
       5.3000       25.2095        5.0453        0.2816       27.0347        6.5450       -4.0289       21.1240        1.5498       -2.9175       13.8101        5.0621       -0.5429       16.8801        0.8479        1.4464
       5.3500       25.8099        5.4575        3.1423       24.9596        5.5677       -2.9567       21.1162        1.6001       -3.1075       14.4225        2.6251       -0.9350       17.4078        1.9601        2.1253
       5.4000       26.3656        7.4740        1.8416       25.0415        5.7958       -2.2968       21.5702        1.4942       -1.8666       15.4586        1.9574       -2.0918       17.0678        0.8858        0.9660
       5.4500       28.6508        6.3795        0.3405       24.3834        6.0900       -1.3161       21.4150        1.5958       -2.1269       16.2942        3.2094       -1.7011       17.4189        1.0366        1.8353
       5.5000       26.9948        8.0879        1.2923       22.9192        6.1116       -1.2445       21.7104        1.8888       -1.9663       17.2642        3.2494       -0.6886       16.4256        1.5858        1.5973
       5.5500       25.5800        7.6464       -0.5222       23.4051        3.8686       -0.1850       22.5494        2.6331       -0.6146       18.4463        2.6545        0.4767       16.2803        2.2359        1.4276
       5.6000       26.6821        5.0159       -0.1432       24.2210        4.1033       -2.0959       22.0791        2.7132        0.4145       17.1066        4.2339        1.8196       16.3984        2.3221        1.7874
       5.6500       25.3181        4.8610        0.2635       24.1086        4.2451       -3.1158       21.9625        3.5570        1.3742       17.7224        3.6757        1.4575       16.7432        2.5139        1.7467
       5.7000       25.2681        5.7072       -0.8075       24.5355        4.7056       -1.1462       21.2515        3.3114        2.4028       17.6055        3.7999        0.5259       15.7906        2.9506        0.9686
       5.7500       28.2789        5.2172        0.3942       25.3849        6.2812       -1.3371       20.7463        3.9978        2.9418       18.2812        3.3283        0.5546       15.6247        3.0589        2.0989
       5.8000       29.2491        4.2348        0.1708       25.8513        6.7134       -0.9976       20.7747        3.9639        0.4519       18.6615        2.3107        1.4495       16.2657        3.9156        1.4276
       5.8500       30.0722        3.9958       -0.1252       27.2865        7.2735       -1.9692       21.2368        4.2981        0.3728       19.7084        2.7663        1.5430       16.2276        4.1041        1.2977
       5.9000       30.2359        2.9995       -0.7025       27.0465        7.0763       -2.5089       17.2972        3.5334        3.7249       19.4017        4.8007        1.6090       15.1352        3.9223        2.6099
       5.9500       30.4986        4.0138       -1.2181       27.5098        5.0578       -0.8894       18.6289        1.4167        3.4675       16.1094        4.5921        1.8668       15.7271        3.3945        3.4987
       6.0000       29.4385        5.6460       -0.6061       27.1645        5.2997       -0.4790       19.3764        2.0181        2.7090       17.0993        4.6577        2.2796       16.0030        3.8908        4.1481
       6.0500       29.6489        5.0688        0.3776       25.8864        6.0274        2.2423       20.2091        1.1132        2.4407       15.3647        7.6120        3.1074       17.9749        3.9183        3.3342
       6.1000       29.0157        2.9017        0.6568       24.3364        5.4921        2.3840       20.8538       -0.0552        1.5020       14.1135        5.8117        3.0913       17.5348        3.4039        2.5751
       6.1500       28.0835        2.1257       -0.6693       22.9256        4.2016        2.3955       20.9380       -0.4191        1.1922       15.2138        6.7831        0.5152       17.0588        3.3249        0.5560
       6.2000       26.5093        0.4001       -1.7664       21.5540        4.8562        2.9870       21.2012        0.0436        1.5427       15.3298        7.3385       -0.6834       19.1046        3.2948       -0.5980
       6.2500       26.4791        0.0423       -1.2269       23.1485        4.0445        3.1552       21.8142        0.0291        2.3039       15.8584        6.0386       -1.0866       20.9246        5.8452        0.9283
       6.3000       26.4377       -0.3062       -0.2274       22.7769        3.8341        3.6856       21.4240        0.0427        2.5032       15.7029        5.6441        1.2416       22.0996        5.4064        0.5360