
This full-field turbulence file was generated by TurbSim (v1.07.00a-bjj, 9-Jul-2014) on 09-Jul-2014 at 12:14:20.

 | w-comp |  Y  x  Z  | Grid Resolution (Y x Z) | Time-step | Hub Elev | Mean U |
            13    13      6.667      6.667          0.050      84.29     13.50

 Z Coordinates (m):
  -40.000 -33.333 -26.667 -20.000 -13.333  -6.667   0.000   6.667  13.333  20.000  26.667  33.333  40.000

 Y Coordinates (m):
  -40.000 -33.333 -26.667 -20.000 -13.333  -6.667   0.000   6.667  13.333  20.000  26.667  33.333  40.000

    0.000  -0.337
    0.397   0.118  -0.354  -0.404  -0.627  -0.136   0.633  -0.570   0.701   1.095   1.248   0.123  -0.663
    0.418  -0.706  -0.682  -0.432  -0.229   0.827   0.664   0.101   0.880   1.376   1.353   0.718  -0.156
   -0.953  -0.496  -1.302  -1.239  -0.307  -1.010  -1.150   0.778   0.314   0.866   1.079   0.755  -0.106
   -0.537   0.257  -0.229  -1.234  -0.874  -0.566   0.061   0.170   0.460  -0.415  -0.652   0.398   0.056
   -0.112   0.396  -0.127  -1.021  -0.364   0.244   0.383  -0.350  -0.849  -1.073  -0.770  -0.278  -0.829
    0.256   0.180  -0.692   0.392   0.246   0.119  -0.359  -0.006  -1.181  -1.193  -1.442  -1.346  -0.425
    0.220   1.170  -0.718  -0.253   0.604   1.212  -0.337  -0.045  -1.247  -0.922  -0.759  -1.711  -0.028
   -1.697  -0.863  -1.629  -0.442  -0.582   0.395  -0.401  -0.949  -1.005  -0.632  -0.408   0.099  -0.487
   -0.668  -0.610  -0.069  -1.702  -0.244   0.430   0.081  -0.308  -1.211  -0.437   0.171   0.923   1.084
    0.051  -1.174  -0.424  -1.334  -0.306   0.395   2.027   1.268  -0.899   0.176  -0.540   0.017  -0.086
   -0.880  -0.237   0.150  -1.207  -0.289   0.341  -0.413   0.702   0.605  -0.134  -1.358  -0.091  -0.500
   -1.140  -0.026   0.869   0.369   0.943   0.046   1.210   0.888   0.207  -0.046  -0.808  -0.501  -0.476
    1.453   0.221  -0.005   0.650   0.342   0.993   2.245   0.440   1.164  -0.507  -0.802  -0.430   0.404

    0.050  -0.454
    0.866  -0.270  -0.386  -0.283  -0.434   0.097   1.132  -0.634   0.825   1.143   1.181   0.323  -0.854
    0.756  -0.804  -0.679  -0.361  -0.039   1.157   0.595  -0.295   0.807   0.751   0.995   0.171  -0.618
   -1.357  -0.258  -1.181  -1.555   0.195  -0.427  -0.713   0.729   0.013   0.729   0.880   0.168  -0.278
   -0.234   0.155  -0.192  -1.000  -0.515  -0.344   0.355  -0.051   0.028  -0.578  -0.411   0.290  -0.194
   -0.162   0.813  -0.106  -0.705  -0.716   0.043   0.210   0.097  -0.734  -1.279  -0.832  -0.718  -1.189
   -0.301   0.374  -0.923  -0.008   0.424  -0.174  -0.355   0.143  -1.485  -1.192  -2.232  -1.288  -0.817
    0.350   0.401  -0.489   0.183   0.618   1.334  -0.454  -0.467  -1.611  -1.121  -0.849  -0.891  -0.452
   -1.740  -0.901  -1.601  -0.346  -0.238  -0.333  -0.770  -1.180  -1.091   0.245  -0.497  -0.617  -0.951
   -0.587  -0.834  -0.600  -1.655  -0.516   0.061  -0.916   0.768  -1.375  -0.268   0.308   0.448   0.936
    0.147  -1.537  -0.737  -1.760  -0.483   0.389   1.442   1.007  -0.634  -0.149   0.307  -0.863  -0.559
   -1.173  -0.328  -0.283  -1.026  -0.726  -0.270  -0.037   0.396  -0.004  -0.401  -0.246  -1.083  -0.427
   -0.609  -0.429   0.340  -0.355   1.100  -0.030   0.503   1.319   0.128  -0.114  -0.711  -0.296  -0.240
    1.098  -0.052   0.196   0.083  -0.376   1.137   1.854   0.746   0.920  -0.324   0.181  -0.342   0.163

    0.100  -0.136
    0.533  -0.361  -0.587  -0.607  -0.524   0.353   0.892  -0.142   0.683   0.834   1.287   0.431  -0.521
    0.940  -1.004  -0.840  -0.535  -0.304   1.409   0.440  -0.350   0.700   1.080   1.464  -0.251  -0.493
   -0.951   0.143  -0.489  -1.197   0.012  -0.589  -0.010   0.770   0.245   0.875   0.725   0.556   0.055
    0.009   0.428   0.115  -1.033  -0.043  -0.217   0.086   0.048  -0.760  -0.764  -0.649   0.270  -0.284
   -0.431   0.848  -0.232  -0.072  -0.479   0.805   0.005   0.150  -1.012  -1.204  -0.638  -0.698  -0.531
    0.067   0.634  -0.522   0.503   0.185  -1.433  -0.444  -0.352  -1.271  -1.610  -1.332  -1.763  -0.806
    0.187   0.930  -0.112   0.008  -0.145   0.542  -0.136  -0.402  -1.508  -0.786  -0.728  -1.221  -0.938
   -1.912  -1.030  -1.026  -0.452  -0.094   0.289  -0.163  -1.247  -0.910  -0.032  -0.207  -0.745  -0.505
   -0.356  -0.324  -0.880  -2.187  -0.436  -0.048  -0.584   0.480  -1.236   0.087  -0.089   0.344   0.357
    0.053  -0.829  -1.332  -1.725  -0.432  -0.228   0.547   0.739  -0.954  -0.105  -0.777  -0.549   0.680
   -0.771  -0.327  -0.285  -0.821  -1.216  -0.069  -0.140   0.295  -0.079  -0.962  -0.315  -1.332  -0.406
   -0.688  -0.533   0.304  -0.223   0.617  -0.325   0.845   1.006   0.044   0.071  -0.810  -0.252  -0.134
    0.938  -0.079   1.406   0.164  -0.279   1.235   1.593   1.224   0.367  -0.044   0.335  -0.165  -0.166

    0.150  -0.825
    0.404  -0.207  -0.459  -0.905  -0.580   0.648   0.759   0.342   1.056   0.521   0.802   0.318  -1.184
    0.856  -0.772  -0.204  -0.162  -0.813   0.840   0.761  -0.740   0.424   0.987   1.341  -0.236  -0.611
   -0.438   0.092  -0.026  -1.687  -0.359  -0.247  -0.252   0.612   0.333   1.023   0.593   0.409  -0.249
    0.307   0.327  -0.030  -0.536  -0.063  -0.158   0.169  -0.679  -0.059  -0.492  -0.804  -0.305  -0.109
   -0.566   0.490  -0.173  -0.077  -0.419   1.364   0.033   0.634  -0.839  -0.615  -1.454  -0.307  -0.781
    0.614   0.768  -0.019   0.578   0.154  -1.612  -0.255  -0.768  -1.667  -1.784  -0.548  -1.840  -0.599
   -0.259   0.370   0.181  -0.486  -0.360   0.086  -0.825  -0.830  -1.904  -0.775  -1.160  -1.271  -0.520
   -2.358  -0.705  -0.912  -0.457  -0.306   0.257  -0.064  -1.458  -0.941   0.630   0.399  -1.239  -0.235
   -0.827  -1.009  -1.011  -2.045   0.170  -0.265   0.105  -0.070  -0.813  -0.134  -0.187  -0.436  -0.162
   -0.677  -0.613  -0.173  -1.267   0.240   0.594   0.264   0.174  -0.844   0.655  -0.178   0.146   0.392
   -0.716  -0.634  -0.406  -1.225  -1.103   0.138  -0.476   0.234   0.352  -1.115  -0.255  -1.235  -0.926
   -0.197  -0.001  -0.031   0.124   0.303  -0.533   1.041   0.267  -0.620   0.431  -1.184  -0.630  -0.101
    0.270  -0.203   1.260   0.199  -0.138   1.562   0.915   1.160   0.677   1.472   0.227  -0.200   0.077

    0.200  -0.188
    0.293  -0.542  -0.179  -0.712  -0.556   0.829   0.734   0.229   0.667   1.087   0.863  -0.108  -0.886
    0.582  -0.640  -0.602  -0.229  -0.855   0.638   0.034  -0.248   0.671   0.591   1.007  -0.284  -0.271
   -0.607  -0.130  -0.147  -1.205  -0.225   0.043  -0.381   0.481   0.224   0.650   0.387  -0.024  -0.197
    0.018   0.267  -0.434  -0.369   0.051  -0.418   0.181  -0.675  -0.302  -0.068  -1.794  -1.158   0.012
   -0.171   0.887   0.390  -0.140  -0.250   1.325   0.031   0.530  -0.482  -0.911  -0.828  -0.667  -0.852
    1.345   1.573  -0.782  -0.341   0.280  -1.268  -0.545  -0.199  -1.101  -1.753  -0.785  -1.289  -0.890
   -0.139   0.394   0.072  -0.151  -0.154  -0.336  -0.188  -0.653  -2.253  -1.425  -1.176  -1.394  -0.375
   -1.403  -0.683  -1.150  -1.222  -0.524  -0.908   0.232  -1.591  -1.087   0.397  -0.109  -0.859  -0.066
   -1.128  -0.945  -1.183  -1.920  -0.386  -0.376   0.096   0.817  -0.575  -0.313   0.205  -0.979   0.053
   -0.804   0.069  -1.052  -0.777   0.030   0.120   0.437   1.140  -0.752  -0.258  -0.402   0.563   0.171
   -1.116  -1.264  -0.958  -0.924  -1.194   0.577  -0.396   0.137  -0.049  -0.787  -0.038  -1.048  -0.304
   -0.354   0.221  -0.208   0.013   0.904  -0.346   0.989   0.467  -0.503   0.140  -1.476  -0.267  -0.194
   -0.245  -0.398   1.323   0.192   0.392   1.906   0.580   0.965   0.768   2.011   0.401  -0.148   0.650

    0.250  -0.574
    0.245  -0.246  -0.286  -0.344  -0.255   0.486   1.161   0.278   0.451   0.761   0.527  -0.321  -0.835
    0.654  -0.952   0.018   0.131  -0.230   0.531   0.350   0.067   0.574   0.952   0.777  -0.629  -0.017
   -0.437  -0.218   0.111  -0.620  -0.954   0.265  -0.537   1.042   0.367   0.675   0.271  -0.295  -0.404
    0.212   0.304  -0.279  -0.668   0.301  -0.670   0.005  -0.906  -0.240   0.105  -1.285  -1.114  -0.189
   -0.520   0.719   0.509  -1.096  -0.614   0.858  -0.001   0.442  -0.280  -1.136  -1.128  -1.049  -0.861
    0.801   1.698  -0.667  -0.239   0.185  -1.333  -0.738   0.188  -0.283  -1.413  -1.811  -1.394  -0.883
   -0.393   0.522  -0.305   0.140  -0.571  -0.666  -0.574  -0.906  -2.394  -1.674  -1.214  -1.120  -0.314
   -1.061  -0.395  -0.641  -1.601  -1.131  -0.417   0.267  -1.781  -1.723  -0.213  -0.232  -0.997   0.052
   -1.547  -1.347  -1.065  -1.511  -1.028   0.069  -0.033   0.303   0.041  -0.506   0.267  -0.633   0.817
   -0.252   0.300  -1.047  -0.241  -0.029   0.019   0.311   1.097  -0.253  -0.407  -0.180   0.165   0.008
   -0.821  -0.542  -0.928  -0.108  -0.354   0.080  -0.406   0.175  -0.346  -0.055  -0.387  -0.863  -0.211
   -0.390   0.349  -0.225  -0.122   0.705  -0.531   1.113   0.368   0.693  -0.060  -1.018  -0.215  -0.429
   -0.008   0.013   1.071  -0.404   1.047   1.149   0.512   0.762   0.159   1.662  -0.228  -0.578   0.760

    0.300  -0.648
    0.290   0.043  -0.209  -0.078   0.286   0.161   1.406  -0.224   0.779   0.431   0.600  -0.142  -0.825
    0.397  -0.841   0.007   0.267  -0.707   0.809   0.758   0.039   0.187   0.693   0.826  -0.885  -0.663
   -0.005  -0.002   0.641  -0.707  -0.997   0.559  -0.581   0.864   0.238   0.203   0.190  -0.958  -0.405
    0.200   0.101  -0.486  -0.778   0.501  -0.005  -0.398  -1.002  -0.322  -0.971  -1.085  -1.077  -0.176
   -0.389   1.136   0.359  -1.051  -0.267   0.782  -0.116   0.420  -0.394  -0.417  -1.079  -1.123  -1.061
    0.426   1.506  -0.407   0.037   0.182  -0.715  -0.318   0.252  -0.299  -1.626  -1.866  -1.050  -0.996
   -0.547   1.461  -0.106  -0.024  -1.162   0.030  -0.648  -1.007  -1.374  -1.556  -1.096  -0.948  -0.444
   -0.976  -0.095  -0.116  -1.678  -0.654   0.349   0.219  -1.592  -1.837  -0.149   0.100  -1.095  -0.120
   -1.063  -1.785  -0.776  -1.601  -0.959  -0.262  -0.155  -0.555   0.539  -0.388   0.378  -1.157   0.641
    0.398  -0.097  -1.086  -0.478  -0.755   0.072   0.298   0.334   0.149  -0.220  -0.310  -0.186   0.272
   -0.545   0.168  -0.850  -0.093   0.116  -0.227   0.327  -0.413   0.224   0.372  -0.551  -0.124  -0.599
   -0.149   0.071  -0.279  -0.181  -0.076  -0.549   1.100   1.063   0.799   0.478   0.104   0.381  -0.222
   -0.274  -0.020   0.240  -0.184   0.715   0.871   0.181   0.282  -0.435   1.763  -0.125   0.192   0.416

    0.350  -0.094
   -0.208   0.056  -0.014   0.043  -0.037   0.262   1.234  -0.069   0.604   0.158   0.637   0.457  -0.417
    0.376  -0.748   0.235   0.130  -0.336   0.950   0.687   0.681   0.310   0.222   0.358  -0.586  -0.798
    0.052   0.362   0.304  -0.188  -0.911   0.759  -0.433   1.007  -0.115   0.199   0.086  -0.410   0.042
   -0.191   0.193   0.013  -0.845   0.776  -0.169  -1.119  -1.192  -0.428  -0.771  -0.787  -0.721  -0.853
   -0.453   1.031  -0.358  -0.439  -0.512   0.655  -0.304   0.222  -0.479  -0.715  -1.238  -1.659  -1.018
   -0.176   0.971   0.242   0.054   0.276  -0.034  -0.281   0.313  -0.523  -1.748  -1.028  -1.498  -1.542
   -0.401   1.347  -0.489   0.015  -0.619  -0.351  -0.094  -0.902  -2.167  -1.852  -0.950  -0.671  -0.425
   -1.070   0.091  -0.207  -1.513  -0.672  -0.354   0.005  -1.810  -1.209  -0.129  -0.145  -1.701  -0.095
   -0.880  -1.113  -1.410  -0.989   0.029  -0.343   0.198  -1.316  -0.564  -0.116   0.067  -1.227   0.631
    0.613  -0.148  -1.139  -0.416  -0.157  -0.143   0.051   0.973   0.338  -0.295  -0.040  -0.101   0.030
   -0.868   0.039  -0.842  -0.043   0.165   0.180   0.426  -0.402   0.773   0.537   0.182   0.645  -0.581
   -0.476   0.078  -0.608  -0.432   0.375  -0.606   0.982   0.980   0.135   0.465   0.177   0.383  -0.378
   -0.076  -1.035   0.431   0.549   0.826   1.287   0.319   0.800  -0.578   1.595  -0.056   0.398  -0.069

    0.400  -0.443
    0.369   0.357  -0.105   0.479  -0.007   0.432   1.222  -0.086   0.572   0.567   0.598   0.286  -0.204
    0.354  -0.705   0.481   0.227  -0.199   0.663   0.559   0.688   0.237   0.540   0.110  -0.592  -0.376
    0.170   0.138   0.683   0.175  -0.573   0.389  -0.807   0.389  -0.139   0.436   0.093  -0.444   0.096
   -0.060   0.249   0.375  -0.635   0.728   0.346  -0.961  -0.966  -0.252  -0.772  -0.768  -0.861  -0.939
   -0.300   0.913   0.257  -0.304  -0.289   0.560  -0.108   0.378  -0.386  -1.056  -1.581  -1.777  -1.441
   -0.068   1.048   0.279   0.006   0.547   0.003  -0.200   0.905  -0.744  -1.371  -1.597  -1.630  -1.408
   -0.060   1.210   0.038   0.081  -0.160  -0.358  -0.443  -1.021  -2.256  -1.278  -1.033  -0.549  -0.197
   -0.458   0.129  -0.202  -1.824  -0.822  -1.103   0.644  -1.891  -0.603  -0.514   0.143  -1.586   0.331
   -1.451  -1.475  -1.237  -1.578  -0.001  -0.942   0.112  -1.324  -0.278   0.143   0.143  -0.646   1.026
    0.643  -0.210  -0.628  -0.203  -0.354  -0.299   0.431   1.441  -0.079  -0.227   0.368  -0.279   0.356
   -0.659  -0.317  -1.053  -0.499   1.244   0.033  -0.289  -0.068   1.176   0.670  -0.364   0.494  -0.350
   -0.293  -0.943  -0.433  -0.209   0.418  -1.010   1.367   1.228   0.293   0.758   0.138   0.226  -0.266
   -0.318  -0.798   1.417   0.919   0.902   1.221   0.501   0.815   0.315   2.111   0.333   0.565  -0.663

    0.450  -0.152
    0.663   0.402  -0.217   0.618   0.654   0.139   0.995   0.154   0.665   0.592   0.349   0.181  -0.380
    0.301  -0.517   0.227   0.407   0.360   0.659   0.749   0.121   0.820   0.602   0.365  -0.574  -0.755
    0.167  -0.085   0.636  -0.226  -0.646   0.036  -0.625   0.615  -0.322   0.297   0.026   0.120   0.152
   -0.228   0.002   0.463  -0.645   0.397   0.256  -1.050  -0.858  -0.374  -0.878  -0.661  -0.798  -0.860
    0.375   0.688   0.079  -0.044   0.320   0.583  -0.058  -0.227  -0.074  -1.461  -1.340  -1.719  -1.824
    0.170   1.059   0.053   0.203   0.365  -0.003  -0.154   0.380  -0.347  -1.300  -1.252  -1.182  -1.804
    0.132   1.133   0.036  -0.195  -0.394  -0.369  -0.152  -0.572  -1.641  -0.748  -1.467  -0.370  -0.280
   -0.641   0.191   0.038  -1.381  -1.135  -0.869   0.483  -1.568  -0.571  -0.488   0.038  -1.282  -0.078
   -1.104  -1.613  -1.574  -1.399   0.005  -1.520   0.196  -1.308  -0.194   0.252  -0.231  -0.909   0.670
    0.317  -0.363  -1.059  -0.047  -0.494  -0.610  -0.043   0.702   0.235  -0.782   0.335  -0.598   0.362
   -1.061  -1.125  -0.385  -0.161   0.971   0.905  -0.603  -0.191   1.591   0.758  -0.017   0.708   0.080
    0.227  -0.089  -0.069  -0.115   0.228  -0.239   0.765   1.008  -0.024   0.809   0.524   0.083   0.236
   -0.462  -0.497   1.129   1.181   1.533   1.285   0.844   0.573  -0.226   2.037   0.751   0.436  -0.972

    0.500  -0.069
    0.321   0.511  -0.021   0.722   0.743   0.244   0.999   0.108   0.738   0.546  -0.123   0.064  -0.883
    0.225  -0.297   0.143   0.641   0.406   0.689   0.653   0.243   0.904   0.745   0.699  -0.387  -0.545
    0.281   0.427   0.695  -0.410  -0.586   0.058  -0.163   0.608  -0.079   0.187  -0.503  -0.011   0.092
   -0.185   0.133   0.717  -0.186   0.843  -0.074  -1.148  -0.757  -0.193  -1.400  -0.778  -0.881  -0.879
    0.262   0.398  -0.358   0.277  -0.046   0.852   0.136  -0.216  -0.054  -1.097  -1.254  -1.541  -1.917
   -0.332   1.445  -0.208   0.206   0.453  -0.242  -0.311   0.066  -0.533  -1.649  -1.214  -1.195  -1.535
    0.867   0.605  -0.539   0.009  -0.656  -0.021  -0.069  -0.431  -1.977  -0.998  -2.377  -0.465  -0.550
    0.091   0.485  -0.611  -1.091  -0.720  -0.503   0.442  -1.080  -0.623  -0.194  -0.417  -0.937  -0.422
   -1.321  -1.309  -2.359  -0.325   0.242  -1.708  -0.173  -0.642  -0.314   1.275  -0.480  -0.355   1.013
    0.659  -0.417  -0.883   0.756  -0.556  -1.021  -0.153   1.078   0.193  -0.178   0.185  -0.264   0.595
   -0.809  -0.603  -0.350   0.701   1.054   1.369  -0.161  -0.147   0.941   0.749  -0.087   0.163  -0.208
    0.302   0.054   0.029   0.213   0.799  -0.875  -0.212   0.736  -0.193   0.852   0.633  -0.970  -0.027
   -0.528   0.192   1.230   1.070   1.598   0.857   0.709  -0.128  -0.861   1.283   0.595   0.401  -1.318

    0.550   0.146
    0.303  -0.005   0.047   0.679   0.386   0.447   0.252   0.489   0.925   0.891  -0.248  -0.224  -0.615
    0.076  -0.436   0.347   0.524  -0.046   0.727   0.446  -0.034   0.810   0.684   0.437  -0.607  -0.523
   -0.232   0.206   0.610   0.021  -0.423   0.162   0.204   0.118   0.091  -0.106  -0.126  -0.098  -0.132
   -0.806   0.364   1.076  -0.476   0.808   0.071  -0.950  -1.054  -0.693  -1.033  -0.140  -0.835  -0.472
    0.452   0.024   0.201   0.474   0.295   0.396  -0.383  -0.432  -0.013  -1.041  -1.173  -1.329  -1.686
    0.136   1.338  -0.627   0.600   0.870   0.088  -0.563   0.006  -0.480  -1.949  -0.884  -1.961  -1.492
    1.225   0.862  -1.252   0.335  -0.502  -0.168   0.146  -0.326  -1.984  -1.477  -1.710  -0.642  -0.810
    0.626   0.620  -1.314  -0.866  -0.410  -0.212   0.481  -1.052  -0.460  -0.262  -0.534  -1.140  -0.295
   -0.986  -0.727  -2.483  -0.179   0.508  -1.868  -1.127  -0.736   0.434   0.993  -0.396  -0.149   1.390
    0.211  -0.640  -0.983   0.976   0.488  -1.033  -0.537   0.098   0.888  -0.318   0.584   0.032   0.129
   -0.841  -0.704   0.064   1.014   0.675   1.066  -0.048  -0.660   0.795   1.185   0.358   0.001   0.082
    0.020  -0.087  -0.290   0.621   1.002  -0.879  -0.430   1.022   0.245   0.634   0.128  -1.011  -0.989
   -0.936   0.161   1.285   0.830   0.987   0.660   0.937  -0.325  -0.522   1.284   1.138   0.909  -1.054

    0.600   0.116
    0.186  -0.208   0.275   0.987   0.635   0.396  -0.084   0.215   0.805   0.742  -0.061  -0.228  -0.330
   -0.058  -0.119   0.459   0.594   0.157   0.511   0.727  -0.060   0.633   0.769   0.098  -0.370  -0.921
   -0.030   0.274   0.504   0.231  -0.194   0.009   0.288   0.152   0.319  -0.107   0.257   0.198   0.120
   -0.293   0.431   0.771  -0.243   1.095   0.370  -0.590  -0.782  -0.626  -0.800  -0.187  -1.033  -0.418
    0.720   0.119   0.707   1.147   0.771   0.576  -0.553  -0.104   0.549  -0.728  -1.464  -1.157  -1.374
    0.045   1.244  -0.476   0.590   0.422   0.206   0.076   0.013  -0.295  -2.637  -0.561  -1.518  -1.624
    1.141   0.501  -0.398   0.220  -0.289   0.017   0.116   0.134  -2.116  -1.339  -1.043  -0.790  -0.825
    0.575   0.765  -1.502  -1.128  -0.308  -0.007   0.964  -0.355  -0.452  -0.222  -0.769  -0.307  -0.457
   -0.625  -0.969  -1.912  -0.004   0.274  -1.612  -0.860  -0.106   0.120   0.495  -0.141  -0.069   1.242
   -0.412  -0.905  -0.322   0.425   0.649  -0.637  -1.418   0.277   0.482  -0.286   0.251   0.153   0.297
   -1.184  -0.387   0.723   0.998   0.905   0.588  -0.031  -0.793   0.451   0.767   0.174  -0.448  -0.577
    0.413  -0.148  -0.328   0.913   0.879  -0.663  -0.561   0.885  -0.200   0.434   0.688  -1.359  -1.533
   -0.966   0.291   0.712   0.666   1.321   0.488   0.490  -0.290  -0.523   0.972   1.085   0.681  -0.074

    0.650  -0.164
    0.095  -0.014   0.066   0.593   0.672   0.609   0.228  -0.307   0.538   0.194   0.435  -0.480  -0.094
   -0.215   0.192   0.861   0.623   0.360   0.547   0.708   0.307   0.786   0.994   0.493   0.044  -0.694
    0.050   0.699   0.806   0.073  -0.182   0.084   0.060   0.576   0.130  -0.380   0.218   0.235   0.013
    0.079   1.037   0.960  -0.085   1.153   0.196  -0.776  -0.465  -0.818  -0.408  -0.477  -1.140  -0.440
    0.853   0.613   0.898   1.110   0.572   0.693  -0.654  -0.228   0.226  -1.013  -2.029  -0.792  -2.042
   -0.006   0.865  -0.186   1.113   0.196   0.251   0.220  -0.060  -0.789  -2.639  -0.387  -1.161  -1.819
    1.797  -0.126  -0.214  -0.176  -0.759  -0.266  -0.164  -0.217  -2.027  -1.957  -0.327  -1.032  -0.926
    0.456   1.229  -1.163  -1.671  -0.686   0.649   1.255   0.619  -1.079  -0.738  -1.290   0.110  -0.278
   -0.725  -0.533  -1.971  -0.018  -0.287  -1.275  -0.992  -0.269  -0.239   0.010  -0.149   0.503   0.517
    0.220  -0.804  -1.114   0.419   0.474   0.172  -2.134   0.419   0.968  -0.245   0.127   0.333   0.107
   -1.123  -0.240   0.465   0.803   1.527   1.189  -0.032  -1.042   0.756   0.579  -0.724  -0.211  -0.556
    0.278  -0.459  -0.402   0.816   1.240  -0.101  -1.303  -0.658  -0.496  -0.349   0.182  -0.872  -1.756
   -0.872  -0.062   0.266   0.157   0.925   0.303   0.290  -0.541   0.054   0.639   1.429   0.547   0.048

    0.700   0.480
   -0.017   0.015   0.305   0.495   0.760   0.504   0.066  -0.028   0.674  -0.034   0.343  -1.081   0.135
   -0.468   0.303   0.447   0.309   1.022  -0.073   0.912   0.595   0.518   0.736   0.479  -0.249  -0.905
    0.525   0.547   0.917   0.018   0.171   0.016  -0.266   0.246   0.038  -0.532   0.396   0.182   0.238
    0.393   1.423   1.154   0.082   0.422   0.001  -1.077  -0.026  -0.741  -0.005   0.286  -0.957  -0.112
    0.496   1.231   0.781   1.247   1.006   0.695  -1.136   0.130   0.482  -1.248  -1.711  -1.210  -1.719
    0.165   0.380   0.278   1.294   0.332   0.068   0.800   0.485  -0.206  -2.692  -0.267  -1.204  -2.056
    1.522   0.293   0.499   0.040  -1.158  -0.599   0.480   0.264  -1.393  -1.504  -1.112  -1.247  -1.478
    0.325   0.998  -1.074  -0.704  -0.038   0.406   0.932   0.183  -0.622  -0.625  -0.583  -0.648  -0.315
   -0.483  -0.348  -1.625  -0.047   0.078  -1.125  -1.333  -0.521   0.061  -0.113  -0.380   0.941  -0.232
   -0.198  -0.676  -1.314   1.230   0.687   0.378  -1.967  -0.205   0.952   0.383   0.081   0.327   0.017
   -0.998  -0.531  -0.097   0.635   1.481   0.503  -0.250  -1.659   0.865   0.223  -0.632   0.133  -0.222
    0.345  -0.464  -0.207   0.545   1.899  -0.882  -1.515  -1.052   0.318   0.112   0.047  -0.412  -1.713
   -1.939  -0.030   1.165  -0.053   0.898   0.172   0.633  -0.423  -0.090   0.636   0.979   0.923   0.321

    0.750   0.869
   -0.222  -0.132   0.550   0.694   0.143   0.474  -0.156  -0.097   0.614   0.030   0.282  -0.961  -0.176
   -0.458   0.068   0.411   0.244   1.419   0.410   0.839   0.280   0.343   0.578   0.097  -0.135  -0.595
    0.434   0.718   0.913  -0.215   0.426   0.441   0.152  -0.072  -0.157  -0.853  -0.021   0.242   0.156
    0.461   1.095   1.392   0.368   0.036   0.133  -0.712  -0.714  -0.311   0.519   0.434  -1.134   0.341
    0.592   1.481   0.578   1.225   1.094   0.966  -1.068   0.019   0.204  -1.476  -1.305  -1.243  -1.620
    0.410  -0.217   0.617   1.146   0.292   0.210   1.312   0.559  -0.211  -2.424  -0.231  -1.083  -2.058
    1.467   0.501   0.951  -0.566  -0.842  -0.616   0.869   0.697  -1.154  -1.648  -1.154  -0.804  -1.540
    0.452   0.750  -1.305  -0.609  -0.137  -0.250   0.800   0.463  -0.379  -0.458  -0.712  -0.299  -0.546
    0.360  -0.191  -1.684   0.132   0.130  -0.995  -1.306  -0.412  -0.451   0.578  -0.401   0.822  -0.408
   -0.576   0.184  -0.753   1.033   0.894   0.572  -2.033  -0.377   0.664  -0.107   0.725   0.715   0.080
   -1.011  -0.557  -0.865   1.347   1.423   0.004   0.374  -1.957   0.820   0.299  -0.372   0.474   0.133
    0.453  -1.103  -0.250   1.084   2.175  -0.754  -1.164  -0.979   0.514   0.547  -0.397  -0.115  -1.346
   -1.325   0.839   1.026   0.576   1.071   0.115   0.583  -0.436  -0.748   0.824   0.955   0.797   0.364

    0.800   1.278
   -0.373  -0.514   0.361   0.573  -0.283   0.157   0.062   0.101   0.335  -0.243   0.591  -0.319  -0.161
   -0.330  -0.251   0.569  -0.164   1.330   0.866   0.427   0.742   0.549   0.080  -0.619  -0.027  -0.649
    0.810   1.354   0.691   0.377   0.407   0.748   0.333  -0.626   0.310  -0.558  -0.248   0.268   0.552
    0.889   1.247   1.476   0.490   0.405  -0.049  -0.125  -1.087  -0.315   0.482   0.291  -1.024   0.716
   -0.036   0.876   1.173   1.323   1.903   1.538  -1.065  -0.132   0.457  -1.114  -1.126  -1.387  -1.846
    0.270   0.424   0.989   1.106   0.599   0.282   1.062   0.318  -0.387  -2.289  -1.034  -0.283  -2.215
    1.448   0.344   1.234  -0.523  -0.740  -0.507   1.278   0.415  -1.137  -1.642  -0.795  -0.765  -1.455
    1.064   1.042  -1.133   0.004  -0.057  -0.003   1.191   0.542  -0.995  -0.545  -0.934  -0.019  -0.348
    0.250  -0.533  -1.643   1.113   0.291  -1.005  -1.746  -1.379  -0.830   1.352  -0.004   0.865  -0.797
   -1.006   0.256  -0.768   1.572   1.222   0.255  -1.348  -0.543   1.304  -0.103   0.547   0.692  -0.310
   -0.558  -0.383  -1.094   0.982   1.404   0.543   0.411  -1.210   0.360   0.316  -0.094   0.591   0.236
   -0.037  -0.582   0.437   1.666   1.574  -0.869  -0.688  -0.872   0.384   0.426   0.050  -1.038  -1.716
   -0.960   0.803   0.714   0.875   0.199   0.066   0.169  -0.898  -0.405  -0.037   0.632   0.463  -0.752

    0.850   1.558
   -0.414  -0.544   0.693   0.804  -0.075  -0.112   0.003   0.393   0.533  -0.047   0.503  -0.124  -0.056
   -0.141   0.365   0.616  -0.430   1.183   0.508   0.158   0.677   0.899   0.058  -0.924   0.001  -0.407
    0.765   1.260   0.938   0.349  -0.089   0.330   0.365  -0.861  -0.050  -0.036  -0.042   0.072   0.102
    0.756   0.808   2.024   0.248   0.378   0.298  -0.611  -1.409  -0.212   0.344  -0.143  -0.775   0.441
   -0.402   1.229   0.752   1.068   1.923   1.210  -1.242   0.281  -0.139  -1.368  -0.556  -1.410  -1.906
    0.703   0.247   0.709   0.564   0.613   0.919   0.425   0.446  -0.191  -2.807  -0.728  -0.302  -2.287
    1.064   0.686   0.743  -0.630  -0.252  -1.008   1.558   0.498  -1.223  -1.634  -0.775  -0.888  -1.522
    1.016   0.414  -0.846   0.572   0.261   0.736   1.430   0.953  -0.813  -0.377  -0.555   0.138  -0.606
    0.052  -0.761  -0.977   1.285   0.202  -1.737  -1.807  -0.957  -0.482   0.966  -0.045   0.634  -1.581
   -0.728  -0.178  -0.673   0.886   0.643  -0.055  -1.001  -1.174   1.749   0.159  -0.123   0.568   0.250
   -1.364  -0.515  -1.473   1.157   1.156   0.542   0.605  -0.779   0.184   0.667  -0.035   0.626  -0.064
   -0.470   0.662   0.053   1.336   1.256  -0.354  -0.130  -0.357   0.247   0.816  -0.138  -0.931  -1.526
   -0.513   0.463   0.268   0.177   0.296   0.388   0.205  -0.707  -0.984  -0.435   0.922  -0.353  -0.722

    0.900   1.408
   -0.630  -0.232   0.675   0.674  -0.883   0.079  -0.299   0.185   0.242  -0.185   0.330  -0.232   0.107
   -0.128   0.944   0.802  -0.620   1.073   0.362  -0.203   0.198   0.952  -0.661  -0.705  -0.330  -0.159
    0.566   1.719   0.924   0.786  -0.140   0.324   0.243  -0.942   0.259  -0.512  -0.234  -0.461  -0.025
    0.773   0.994   1.606   0.654   0.371   0.035  -0.197  -0.929  -0.484  -0.076  -0.094  -0.770  -0.063
   -0.425   1.492   0.580   1.268   1.662   1.377  -0.973   0.162  -0.021  -1.343  -0.568  -1.206  -1.985
    0.508   0.402   0.865   0.371   0.561   1.092   0.523   0.812  -0.327  -2.860  -0.287  -0.729  -2.307
    1.107   1.036   1.053  -0.140  -0.465  -0.907   1.408   0.599  -0.977  -1.295  -0.759  -0.767  -1.303
    0.818   0.372  -0.403   1.055  -0.269   0.308   1.128   0.930  -0.739  -0.073  -0.187   0.527  -0.508
    0.363  -0.164  -0.859   1.689   0.138  -1.320  -1.636  -0.568  -0.590   1.080   0.082   0.127  -1.237
   -0.618  -0.034  -0.348   0.792   0.520  -0.260  -1.279  -1.342   1.325   0.207  -0.129   0.185  -0.270
   -1.067  -1.147  -1.037   1.047   1.421   0.507   0.361  -0.225   0.439   0.718  -0.023   0.972  -0.483
   -0.305   0.914  -0.334   1.129   0.448  -0.181   0.216  -0.719   0.894   0.563  -0.956  -1.101  -0.988
    0.304   0.199  -0.290   0.474  -0.201  -0.248  -0.063  -0.609  -0.677  -0.446   1.032  -0.334  -1.187

    0.950   1.021
   -0.434  -0.206   0.635   0.497  -0.817  -0.057   0.152   0.372   0.275   0.039   0.065  -0.281   0.501
   -0.282   1.420   0.661  -0.449   1.019   0.227  -0.128   0.100   0.781  -0.881  -0.734  -0.394   0.290
   -0.181   1.537   1.027   0.598   0.278   0.450   0.216  -0.852   0.264  -0.854  -0.537  -0.966   0.059
    1.033   0.468   1.107   0.781   0.674  -0.146  -0.467  -1.292  -0.656  -0.803  -0.634  -1.472   0.034
    0.031   1.250   0.409   1.371   1.675   1.497  -0.633  -0.064  -0.073  -1.465  -0.587  -0.818  -1.728
    0.644   0.893   1.637   0.165   0.649   0.533   1.046   0.419  -0.570  -2.128  -0.260  -0.951  -2.126
    1.451   0.925   0.969   0.515  -0.389  -1.071   1.021   0.611  -0.890  -1.035  -0.890  -0.861  -1.612
    0.986   0.871  -1.050   0.117  -0.546   0.157   0.834   0.293  -0.462   0.128  -0.625   0.426  -1.289
    0.694  -0.701  -0.724   2.024   0.439  -1.443  -1.354  -0.122  -0.636   0.678   0.883  -0.079  -1.904
   -0.554  -0.392   0.298   0.243   0.603  -0.253  -0.312  -0.921   1.012  -0.509  -0.259  -0.345  -0.617
   -0.821  -1.794  -0.561   0.647   0.947   0.830  -0.014  -0.511   0.496   0.518  -0.036   0.092   0.063
   -0.327   1.517  -0.263   1.137  -0.040  -0.368  -0.221  -1.156   0.561   1.141  -1.174  -0.743  -1.051
    0.825   0.687  -0.944   0.604  -0.981  -0.710   0.042  -0.636   0.012  -0.074   0.591  -0.017  -2.301

    1.000   0.883
   -0.394  -0.203   0.694   0.654  -0.666   0.193   0.394   0.340   0.780  -0.064   0.637  -0.279   0.364
   -0.273   1.016   0.187  -0.519   1.240   0.382   0.122  -0.010   0.410  -1.030  -0.544   0.256   0.356
    0.267   1.699   0.801   1.118   0.196   0.092  -0.093  -0.483  -0.098  -0.905  -0.705  -0.921   0.313
    0.876   0.627   0.581   0.119   1.046  -0.214  -0.103  -0.916  -0.244  -0.888  -0.348  -1.603   0.070
    0.617   1.601   0.161   1.916   1.906   1.027  -0.623   0.036  -0.441  -1.657  -1.043  -0.931  -1.068
    0.958   1.426   1.789   0.237   0.712   0.101   0.315  -0.227  -0.325  -1.326  -0.336  -0.517  -1.997
    1.487   0.814   1.168   0.071   0.294  -1.070   0.883  -0.052  -1.407  -0.696  -0.732  -1.022  -2.157
    1.055   1.018  -1.130  -0.202   0.208   0.472   0.994   0.305  -0.224  -0.356  -0.561  -0.084  -0.948
    1.528  -0.453  -0.754   1.537   0.194  -0.961  -0.897  -0.293   0.547   0.011   0.583  -0.238  -1.466
   -1.036  -0.292   0.648  -0.369   0.453  -0.038   0.104  -0.048   1.010   0.421  -0.989  -0.278   0.081
   -0.838  -1.513   0.321   0.376   0.639   0.630   0.194  -0.792   0.097   0.310   0.554  -1.282  -0.131