
This full-field turbulence file was generated by TurbSim (v1.07.00a-bjj, 9-Jul-2014) on 09-Jul-2014 at 12:14:19.

 | u-comp |  Y  x  Z  | Grid Resolution (Y x Z) | Time-step | Hub Elev | Mean U |
            13    13      6.667      6.667          0.050      84.29     13.50

 Z Coordinates (m):
  -40.000 -33.333 -26.667 -20.000 -13.333  -6.667   0.000   6.667  13.333  20.000  26.667  33.333  40.000

 Y Coordinates (m):
  -40.000 -33.333 -26.667 -20.000 -13.333  -6.667   0.000   6.667  13.333  20.000  26.667  33.333  40.000

    0.000  14.799
   15.644  16.026  16.887  17.075  15.487  14.511  14.025  13.759  14.622  14.014  15.548  15.376  15.465
   14.928  16.387  15.525  15.831  15.408  12.725  14.823  13.722  13.014  13.867  13.939  14.201  14.930
   16.418  14.575  14.239  14.053  14.569  13.228  13.656  14.365  14.636  15.137  14.972  14.464  14.842
   14.238  16.885  16.273  15.472  14.641  13.337  13.949  14.304  15.445  15.208  16.248  15.042  13.775
   15.357  14.431  13.986  14.552  13.924  13.245  14.155  15.220  15.662  15.969  16.638  14.615  13.725
   14.357  15.159  15.909  14.916  13.443  13.239  15.181  14.925  15.742  16.597  15.400  14.606  13.861
   14.600  14.030  13.824  13.342  15.918  15.050  14.799  12.431  13.954  15.095  14.762  14.939  15.379
   14.818  14.911  14.116  14.169  14.852  14.656  13.172  14.928  14.380  14.229  13.239  12.666  13.904
   14.340  15.872  15.850  15.282  15.273  14.624  13.946  14.172  14.164  14.514  13.369  13.871  12.223
   14.510  14.469  16.756  14.621  15.106  14.302  13.314  13.879  13.525  13.948  13.525  13.591  13.084
   13.382  13.230  15.349  15.723  14.173  12.877  13.721  13.607  13.014  12.951  14.199  13.531  12.498
   11.333  11.359  13.549  12.515  14.130  13.496  12.465  13.445  12.193  12.787  13.712  12.233  13.009
   10.764  11.306  13.460  14.144  13.051  14.064  14.050  12.126  11.952  12.752  12.531  11.265  12.197

    0.050  14.951
   15.623  15.988  16.180  17.147  15.401  14.419  14.237  13.680  14.535  13.463  15.153  15.102  15.722
   14.842  16.279  15.465  16.028  15.629  12.877  14.580  14.177  13.184  13.866  14.298  14.707  14.932
   16.900  14.642  14.107  14.133  14.232  12.722  13.241  14.818  14.729  14.858  14.990  14.511  14.799
   14.048  16.850  16.478  14.768  14.410  13.366  13.740  14.613  15.446  15.391  15.995  14.936  13.297
   15.468  14.038  14.374  14.315  14.316  13.284  14.368  14.770  15.490  15.853  16.498  14.951  13.971
   14.261  15.492  15.629  14.554  13.521  13.789  15.582  15.272  15.742  16.757  16.080  15.086  14.157
   14.442  14.236  13.496  13.047  15.059  14.453  14.951  12.381  14.056  15.418  14.738  15.089  15.096
   15.125  14.670  13.589  14.513  14.361  14.452  13.264  14.560  14.888  13.915  13.284  13.096  14.099
   15.344  15.768  15.722  15.289  14.858  14.448  14.868  14.447  14.699  15.007  12.988  13.514  12.467
   14.732  14.507  16.734  14.350  15.448  14.491  13.435  14.347  13.451  13.777  14.194  13.718  13.112
   12.930  13.187  15.662  15.750  14.053  13.871  13.258  13.712  12.839  13.571  14.134  13.226  12.688
   10.489  10.699  13.894  12.842  14.199  13.596  12.202  13.475  12.100  12.343  13.799  12.246  13.115
   11.135  10.912  13.831  13.536  13.449  13.233  13.961  12.519  11.503  12.053  11.962  11.460  12.114

    0.100  14.207
   15.520  15.993  16.555  16.992  15.342  14.501  14.125  13.958  14.603  13.680  15.124  15.327  16.357
   15.532  16.006  15.910  16.392  16.046  12.467  15.082  14.454  14.038  14.011  14.110  15.105  14.956
   17.502  14.573  14.271  14.498  14.251  13.131  12.841  14.764  14.923  14.670  15.270  14.525  14.498
   14.176  16.300  16.003  14.739  14.417  13.536  13.644  14.250  15.904  15.174  15.454  14.804  13.810
   15.413  13.692  14.556  14.005  14.230  14.009  14.762  14.320  15.326  15.792  15.986  14.880  13.848
   13.994  14.585  15.397  13.995  13.511  14.533  15.331  14.544  15.628  16.328  15.663  14.885  14.192
   14.202  13.395  13.303  13.294  15.090  14.476  14.207  12.186  13.717  15.395  15.274  15.338  15.266
   15.292  14.482  13.397  14.058  14.327  13.924  13.542  13.885  15.108  14.611  13.610  13.102  14.341
   15.657  15.352  15.451  15.043  13.719  15.348  14.861  15.236  15.042  14.608  12.703  13.603  12.584
   14.813  14.313  16.189  14.729  15.153  14.909  13.420  15.425  13.848  13.528  14.192  13.329  13.078
   13.188  13.553  15.767  15.318  14.254  13.916  12.761  12.987  12.880  13.433  13.713  13.550  12.718
   10.585   9.885  13.979  12.798  14.097  13.943  12.099  12.754  12.670  12.616  14.603  13.157  13.811
   11.340  10.654  13.505  13.739  13.103  13.078  14.524  12.829  11.756  11.443  12.387  11.460  12.606

    0.150  13.985
   15.543  15.580  16.564  16.777  16.013  14.596  14.312  13.681  14.343  14.360  15.113  15.440  16.669
   15.352  16.010  16.041  16.432  16.002  12.921  15.405  14.626  14.783  14.284  14.115  14.943  14.438
   17.444  15.060  13.955  14.597  14.462  12.771  13.242  14.524  14.457  14.941  15.031  14.783  14.789
   14.657  16.405  15.266  14.856  14.292  13.553  13.174  14.625  15.238  15.096  15.765  14.881  13.610
   15.104  13.481  14.494  13.502  13.750  14.342  14.880  14.294  15.563  15.939  16.218  14.981  14.144
   14.235  14.010  15.363  13.868  12.875  14.891  15.186  14.908  16.225  16.119  16.142  15.055  14.741
   14.372  14.000  13.545  13.641  15.524  14.503  13.985  12.783  13.980  15.654  14.958  14.382  15.223
   15.215  14.453  13.189  13.819  14.640  13.860  13.460  14.231  15.095  14.108  13.448  13.364  14.376
   15.257  15.733  15.511  15.301  13.503  15.339  14.621  15.453  15.154  14.127  12.798  13.815  12.285
   15.290  13.992  16.566  14.713  14.620  14.412  12.843  14.681  13.545  13.896  13.765  13.558  12.855
   13.736  13.114  16.208  15.537  13.527  14.035  12.646  13.112  13.045  13.318  13.943  13.111  12.725
   10.813   9.875  13.591  13.267  14.777  14.290  11.700  13.399  13.277  13.270  15.025  13.801  13.881
   11.474  10.920  13.423  13.713  12.815  13.733  14.354  13.267  12.312  11.838  12.648  11.306  11.956

    0.200  14.388
   15.474  15.893  16.482  16.803  16.114  14.766  14.543  13.582  14.087  14.372  15.067  15.678  16.293
   15.213  16.032  16.456  16.502  15.831  12.954  15.260  14.255  14.448  14.630  14.063  15.112  14.329
   17.162  14.872  14.011  14.248  14.540  12.929  14.195  14.515  14.357  14.944  14.988  14.890  15.220
   15.059  16.532  15.748  14.730  14.462  13.417  13.327  15.346  15.727  14.759  15.889  15.566  13.750
   15.080  13.269  14.240  13.599  13.401  14.312  14.667  14.831  15.526  16.223  15.666  15.725  14.107
   13.846  13.692  15.427  14.067  13.123  14.844  15.425  14.933  16.282  16.007  16.277  14.166  14.441
   14.395  14.088  13.918  13.520  15.618  14.748  14.388  13.130  14.573  15.940  14.771  14.548  14.763
   14.919  14.353  12.874  13.527  14.957  13.742  13.386  14.150  15.212  14.076  13.198  13.054  13.813
   14.278  15.315  15.537  15.461  14.062  15.305  14.447  15.040  15.322  13.896  12.633  13.441  12.309
   15.413  14.060  16.675  14.168  14.726  14.621  13.386  13.984  13.746  14.061  13.538  13.666  12.947
   13.729  13.796  16.526  15.101  13.576  14.280  12.858  13.106  12.794  12.918  14.462  13.303  13.171
   10.482  10.049  13.537  13.423  14.453  14.331  11.743  13.715  13.661  12.832  15.237  13.506  13.509
   11.178  11.361  12.803  13.485  12.194  13.998  14.688  13.229  12.698  11.994  12.603  11.352  11.096

    0.250  14.071
   15.699  15.658  16.933  17.315  16.104  14.821  14.405  14.232  14.136  14.359  15.424  15.747  16.213
   15.508  16.266  16.414  16.515  15.304  13.101  15.254  13.691  13.933  14.888  14.316  15.446  14.531
   16.591  14.699  13.818  13.739  14.228  12.690  14.286  14.861  14.259  14.750  14.386  14.888  15.030
   15.016  15.764  15.613  14.422  14.409  13.090  13.970  15.982  15.984  14.964  15.751  15.585  14.300
   15.932  13.200  14.238  14.656  13.259  15.102  14.679  14.663  15.587  16.462  15.306  16.071  14.411
   13.908  13.544  15.032  14.238  13.663  15.045  15.177  14.257  15.582  16.037  15.999  14.432  15.196
   14.220  14.495  13.689  13.576  15.205  15.102  14.071  13.618  14.846  16.098  14.917  15.112  15.146
   14.974  13.957  12.562  13.605  14.789  13.628  13.257  14.034  14.816  14.329  12.249  13.002  13.801
   15.314  14.631  15.510  15.207  14.900  14.462  14.321  15.058  15.186  14.150  12.710  13.052  12.445
   15.129  14.676  16.334  14.481  14.134  14.939  13.035  13.306  13.674  14.149  13.516  13.542  12.458
   13.547  13.442  17.274  14.293  12.762  14.060  13.137  13.990  13.031  12.718  14.374  12.725  13.369
   10.196   9.960  13.573  13.171  14.284  13.978  12.248  13.709  13.417  12.282  14.524  13.141  13.406
   11.578  10.965  12.528  14.154  12.132  13.635  14.795  13.638  13.599  11.935  12.528  11.732  11.471

    0.300  13.991
   15.598  15.425  16.913  17.496  16.024  15.066  13.842  14.244  13.672  14.554  15.552  15.277  16.342
   15.924  16.278  16.126  16.044  15.453  13.518  14.916  13.980  13.735  14.840  14.545  15.587  14.581
   16.580  14.108  13.480  13.820  15.006  12.502  14.218  14.747  14.268  15.073  15.081  15.213  14.978
   14.965  15.182  15.670  14.452  14.307  13.334  14.003  15.792  15.264  15.175  15.566  15.234  14.468
   16.038  13.523  14.295  14.570  13.996  14.993  15.119  14.796  15.705  16.419  15.920  16.154  14.398
   13.640  13.594  14.550  14.315  13.439  14.999  13.915  14.212  15.437  16.685  16.133  14.777  15.882
   14.320  14.613  13.423  13.675  15.868  14.472  13.991  13.644  15.059  16.199  14.690  15.393  15.613
   14.769  14.764  12.647  13.603  15.083  13.468  12.866  13.727  14.432  14.919  12.039  13.238  14.195
   15.275  14.458  14.708  15.044  14.264  14.346  14.426  15.358  16.117  14.279  12.551  13.053  12.390
   14.988  14.794  16.106  14.701  13.666  14.720  12.906  13.517  13.777  14.079  13.742  13.652  12.176
   13.800  13.475  17.165  14.674  12.618  14.852  12.712  12.959  12.819  13.297  13.718  12.074  13.786
   10.343   9.911  13.423  13.226  14.383  13.765  11.785  13.600  13.917  12.636  13.626  13.312  13.818
   11.453  10.422  12.274  14.155  12.615  13.371  15.264  13.087  13.671  12.206  11.803  12.037  11.901

    0.350  13.622
   15.821  15.248  16.935  17.926  16.064  14.736  13.694  14.127  13.716  14.843  15.679  14.772  16.132
   15.716  16.085  15.729  15.484  15.738  13.437  14.805  13.697  13.843  14.918  14.702  15.958  15.089
   16.177  14.066  14.063  14.099  15.293  12.779  13.949  14.602  14.555  14.875  15.299  14.908  14.016
   14.787  15.270  15.512  14.643  14.360  13.657  13.304  15.784  15.766  15.512  15.510  14.912  14.708
   15.211  13.505  13.934  14.688  14.408  14.917  15.086  15.105  15.246  16.409  15.821  16.293  14.948
   13.731  13.664  14.370  13.959  12.788  14.928  13.799  13.906  16.000  17.079  15.601  15.224  15.610
   14.162  14.605  12.975  13.958  15.517  14.877  13.622  13.635  15.374  16.485  13.975  15.495  16.207
   14.498  14.900  12.921  13.666  15.372  12.736  11.883  13.791  14.289  14.608  11.723  12.474  14.585
   15.247  14.569  15.345  14.617  13.832  14.582  14.420  14.999  15.905  14.012  12.492  12.494  12.795
   14.944  14.590  16.310  15.316  13.997  15.373  12.721  13.621  13.740  14.342  13.807  13.191  11.972
   13.954  14.132  16.628  14.520  12.344  14.674  12.684  13.135  12.270  13.802  13.052  11.890  13.373
   10.480  10.097  13.672  12.984  14.138  13.574  11.667  13.058  14.217  13.061  13.668  13.340  13.697
   11.235  10.807  12.080  14.334  12.511  14.035  14.392  12.115  13.642  12.620  11.429  12.423  12.485

    0.400  13.580
   15.699  15.139  17.409  17.284  16.303  14.560  13.615  14.206  13.602  14.313  15.575  14.900  16.033
   15.331  15.994  15.461  15.361  15.416  13.752  14.664  13.470  14.173  14.532  15.138  15.869  14.751
   15.984  14.905  14.011  14.294  15.065  13.324  13.866  14.852  15.063  14.941  15.874  15.015  13.605
   14.602  15.539  14.993  14.219  13.705  12.930  13.882  16.074  15.794  15.598  15.629  15.367  14.414
   14.788  13.585  14.011  14.512  14.179  14.476  15.049  14.888  15.076  16.899  15.817  15.999  15.557
   14.140  13.732  13.983  13.928  12.814  15.002  14.338  13.003  15.797  16.760  15.641  14.521  15.372
   14.044  14.792  12.921  13.806  15.164  15.112  13.580  13.883  15.337  16.606  13.649  15.452  16.011
   13.926  14.142  13.317  13.277  15.632  13.563  12.806  13.972  14.133  14.791  12.535  12.584  14.588
   15.268  14.708  15.356  14.956  13.523  14.561  14.506  14.517  15.125  13.145  12.445  12.161  12.796
   14.980  14.976  16.755  14.945  13.700  14.633  13.108  13.450  13.471  13.849  13.080  13.363  11.653
   14.147  14.211  16.933  13.778  12.024  14.847  12.024  13.478  11.810  13.577  13.404  12.068  13.116
   11.018  11.272  13.635  13.419  13.523  13.771  11.364  12.881  13.533  12.958  13.844  13.683  14.105
   11.265  10.979  11.788  13.485  12.945  14.200  13.965  11.910  12.824  12.083  11.409  12.104  12.508

    0.450  13.559
   15.410  15.758  17.675  17.153  16.227  14.390  14.205  14.215  13.435  14.159  15.828  15.059  16.398
   14.867  16.142  15.694  16.137  15.428  13.682  14.626  13.633  14.353  14.866  14.970  15.785  15.417
   16.202  15.344  14.206  14.382  15.200  13.412  14.302  14.904  15.039  14.755  15.444  14.889  13.650
   14.301  16.134  14.851  14.050  14.191  13.079  13.943  15.598  15.417  15.605  15.972  15.707  14.067
   14.489  13.581  13.904  14.478  14.431  14.490  15.077  15.190  15.068  16.306  15.863  14.878  15.466
   13.981  13.496  13.742  13.869  12.985  14.888  14.633  13.554  15.248  16.783  15.814  15.341  15.812
   14.088  14.335  13.314  14.540  14.993  14.914  13.559  13.228  15.414  16.170  13.732  15.280  15.943
   13.895  13.719  12.542  13.690  15.459  13.326  12.945  13.931  14.955  14.753  12.738  12.911  15.284
   15.195  14.446  15.434  14.148  13.701  14.237  14.719  14.735  15.455  13.335  13.075  12.971  13.540
   14.899  15.404  16.690  14.450  13.589  14.038  14.316  13.332  13.426  14.117  13.113  12.894  10.953
   14.508  13.805  16.905  13.327  12.262  14.641  12.657  13.295  11.676  12.921  13.859  12.144  12.679
   11.230  10.990  13.860  12.947  13.581  13.383  11.683  12.899  13.393  13.276  13.803  14.201  12.824
   11.033  10.243  11.923  13.125  12.421  13.662  13.107  12.080  13.333  12.812  11.378  12.780  12.426

    0.500  13.434
   15.514  15.566  17.692  16.754  16.025  14.484  14.288  14.326  13.368  13.982  15.847  14.641  15.970
   15.228  16.175  16.095  16.429  15.283  13.718  14.727  13.517  14.229  15.212  14.608  15.753  15.666
   15.892  15.217  14.147  14.344  15.377  13.309  14.481  14.708  14.388  14.474  15.731  14.659  13.835
   13.792  15.940  15.072  13.494  13.840  13.687  13.529  16.106  14.831  16.206  16.321  15.458  14.332
   14.781  13.495  13.917  14.357  14.215  13.885  14.974  15.112  15.048  15.933  15.580  14.455  14.876
   14.511  13.753  14.379  14.170  13.187  14.478  14.433  13.862  15.165  16.445  15.333  15.108  15.531
   14.012  14.275  13.191  13.789  15.186  14.446  13.434  12.893  15.460  16.488  14.666  15.010  15.914
   13.831  13.626  13.181  13.640  14.867  13.165  13.495  14.372  15.573  15.144  12.724  12.178  15.887
   14.882  14.233  16.382  14.280  14.217  15.571  14.419  14.541  15.362  12.544  13.941  13.346  12.766
   15.211  15.518  17.362  14.494  13.360  14.481  14.333  13.389  13.303  13.613  13.325  13.028  10.436
   14.848  14.160  16.582  13.279  12.088  14.134  12.755  12.275  12.127  12.414  13.943  12.070  12.559
   10.806  11.423  13.528  12.934  13.383  13.444  11.940  12.462  13.619  12.575  12.827  13.696  12.671
   10.893  10.501  11.315  12.643  11.863  13.262  13.270  12.796  13.564  12.456  11.962  13.208  12.396

    0.550  13.497
   15.303  15.774  17.209  16.999  15.949  14.206  14.442  14.328  12.957  14.336  15.673  14.556  15.848
   15.419  16.560  16.271  16.250  15.005  13.956  14.553  13.566  14.227  15.109  14.733  15.606  15.710
   16.074  15.610  14.741  14.174  15.364  13.232  14.204  14.571  14.549  14.294  15.735  14.615  13.943
   14.449  15.898  15.362  13.626  13.938  13.264  13.588  16.322  15.525  15.658  15.568  16.005  14.028
   14.432  13.571  13.670  14.426  13.713  13.982  14.699  15.001  15.431  16.163  15.194  15.519  15.187
   14.963  13.692  15.096  14.586  13.240  14.656  14.629  14.275  15.203  16.260  14.927  15.403  15.701
   13.921  14.330  13.688  14.261  15.479  14.745  13.497  13.070  14.944  16.169  14.635  15.617  15.544
   14.158  13.985  13.433  13.269  14.321  13.571  14.248  15.117  15.210  14.558  12.721  12.448  15.541
   14.696  14.209  16.506  14.848  13.680  15.886  14.934  14.284  15.242  12.875  13.446  12.633  12.589
   14.750  15.107  16.798  14.598  12.840  14.309  14.286  13.637  12.844  13.761  12.627  12.988  10.416
   15.055  14.406  16.321  13.346  11.828  13.507  11.481  12.428  12.446  12.366  13.479  11.908  11.633
   10.957  11.675  13.252  12.741  13.202  12.657  12.409  12.513  13.461  13.008  13.081  13.605  12.244
   11.351  10.842  11.257  12.790  12.408  12.939  13.292  12.489  13.675  12.564  11.794  13.105  12.418

    0.600  13.966
   15.704  15.908  16.919  17.074  16.032  14.897  14.768  14.477  13.230  14.590  15.751  14.466  15.674
   15.718  16.958  16.269  16.446  15.041  13.843  14.203  13.534  14.081  15.002  14.125  15.877  16.049
   16.246  15.587  14.798  14.241  15.081  13.471  13.894  15.027  15.104  14.220  15.998  14.809  13.733
   14.912  15.821  15.221  13.764  14.022  13.040  13.993  16.001  15.386  15.480  15.912  15.383  14.142
   13.537  13.366  13.756  14.287  14.425  13.721  15.071  14.828  14.893  16.262  15.407  15.851  14.953
   15.268  13.050  15.370  14.557  13.740  13.896  14.284  13.857  15.151  16.305  15.066  16.333  15.084
   13.329  14.528  13.644  14.336  15.261  14.624  13.966  13.262  15.152  16.080  14.278  15.541  15.489
   13.876  13.435  13.889  13.130  14.594  13.362  14.565  14.765  14.187  14.364  12.996  12.440  14.999
   15.116  14.682  15.641  15.031  13.693  15.594  15.056  14.056  15.194  13.337  12.940  13.012  13.007
   15.456  14.991  16.048  14.630  13.743  13.728  14.534  14.249  12.581  13.832  13.012  13.124  11.082
   14.315  15.133  16.340  13.919  11.512  12.964  11.201  11.871  12.244  12.535  13.417  10.981  11.787
   10.875  11.587  13.706  12.988  13.766  12.968  12.938  12.047  13.334  13.387  12.616  13.712  12.392
   11.834   9.951  11.555  12.577  12.475  13.429  13.408  12.552  13.347  12.870  11.604  13.544  12.058

    0.650  14.967
   15.159  16.127  16.923  17.088  16.344  15.113  14.398  14.868  12.912  14.457  15.647  14.857  15.486
   15.424  16.658  16.107  16.662  14.797  14.068  13.941  13.951  13.936  14.774  13.878  15.844  15.850
   16.417  15.348  14.311  14.070  14.942  12.888  13.198  15.978  14.747  14.030  16.093  14.684  14.116
   15.067  16.110  15.289  14.182  14.065  13.046  14.522  16.126  15.672  15.573  15.616  15.163  14.097
   13.070  13.065  13.952  14.326  14.617  14.439  14.775  15.390  15.147  16.353  15.791  15.336  14.294
   14.848  13.052  14.869  14.193  13.350  14.034  13.963  14.401  15.348  16.415  15.281  15.861  14.404
   13.249  14.648  12.858  14.287  15.398  14.541  14.967  13.877  14.942  16.549  14.339  15.318  15.382
   13.749  13.104  14.295  12.809  14.331  14.053  13.947  14.326  14.401  15.212  13.696  12.761  15.259
   15.075  14.387  15.446  15.372  13.871  15.396  15.132  14.463  15.728  13.008  12.906  13.166  13.116
   15.874  15.128  16.342  14.183  13.850  13.248  14.638  14.082  12.398  13.841  13.540  13.364  11.645
   14.623  14.707  16.893  13.561  11.107  12.414  11.039  11.734  12.710  12.812  13.466  11.241  11.475
   11.360  11.823  13.196  13.755  13.266  13.006  13.120  12.970  13.467  13.127  12.164  12.882  11.936
   11.230   9.977  11.454  12.190  13.023  13.600  13.849  12.897  13.200  13.209  11.612  13.584  12.076

    0.700  14.676
   15.311  16.372  16.793  17.124  15.659  14.911  14.760  15.102  12.997  14.335  15.837  15.326  15.457
   16.039  16.413  16.151  16.782  14.622  14.718  13.686  13.800  14.036  14.841  14.323  16.060  15.956
   15.732  15.747  14.517  14.419  14.800  12.547  13.468  16.030  14.871  14.216  15.840  14.693  13.874
   14.961  16.665  15.223  14.248  14.218  12.756  14.477  15.959  15.395  15.836  15.213  15.578  13.838
   12.908  12.978  13.954  13.802  14.182  14.587  14.788  16.007  15.395  17.174  16.022  15.174  14.496
   14.506  13.220  14.477  13.431  13.334  14.968  13.716  13.890  15.122  16.636  15.114  16.053  15.017
   14.258  15.229  13.320  14.443  15.142  14.790  14.676  14.113  14.357  16.134  14.306  15.280  15.653
   13.521  13.121  14.371  12.362  14.382  13.895  14.760  14.239  14.653  15.759  13.428  12.929  15.178
   14.564  14.188  15.556  15.437  14.624  15.558  15.099  13.803  15.826  13.074  13.136  12.599  13.085
   15.603  14.963  15.955  14.153  13.259  13.095  14.835  13.871  11.562  13.698  12.954  13.617  11.944
   15.511  14.729  16.635  14.462  11.397  12.528  10.237  12.571  12.970  13.299  12.542  11.049  11.176
   11.906  11.662  13.098  12.975  11.936  13.449  13.916  12.384  13.539  12.670  11.808  12.552  11.931
   11.760  10.433  11.682  12.523  12.781  13.942  13.109  12.865  13.015  13.334  11.565  13.227  12.553

    0.750  14.410
   15.541  16.440  16.399  17.063  16.034  14.980  15.308  15.067  13.505  13.902  15.756  15.159  15.435
   16.607  16.673  15.790  16.522  14.848  14.487  13.865  13.639  14.307  14.760  14.511  16.290  16.354
   15.908  15.994  14.634  14.723  14.148  12.872  13.415  16.194  14.695  14.429  15.754  14.853  13.736
   15.684  16.831  15.293  14.653  14.759  12.752  14.017  15.391  15.633  15.677  15.606  15.920  14.207
   13.022  12.629  14.395  14.290  14.144  13.664  14.866  15.785  15.240  17.321  15.648  15.453  14.634
   14.378  13.127  14.032  13.972  13.621  14.855  13.939  14.080  15.380  16.361  14.993  16.391  14.961
   14.232  14.950  13.823  14.691  15.043  14.747  14.410  14.216  14.499  15.911  14.065  14.779  16.104
   13.536  13.946  14.548  12.741  13.601  13.934  14.918  14.464  14.718  15.685  13.004  12.470  15.679
   14.323  13.588  15.201  15.465  14.609  15.451  15.640  13.354  16.456  12.273  12.433  12.296  13.613
   15.247  15.191  16.066  13.810  13.260  13.295  15.183  14.305  11.137  14.631  12.673  14.208  11.853
   15.040  14.810  16.431  14.514  10.906  13.397  10.772  12.867  13.127  13.056  12.583  11.256  11.687
   11.781  11.685  13.665  13.186  11.821  13.894  13.388  13.242  13.317  12.558  11.428  12.645  12.026
   11.112   9.769  11.685  13.316  13.263  14.014  12.837  12.485  12.798  12.917  11.600  13.125  11.692

    0.800  13.556
   15.934  16.605  16.562  16.831  16.302  15.146  15.446  14.999  13.808  13.571  15.266  15.303  15.036
   16.160  16.584  16.125  17.251  15.182  14.599  13.886  13.967  14.385  14.729  14.726  16.242  16.533
   15.694  15.704  15.187  15.212  14.387  13.157  13.314  15.436  14.613  14.312  15.696  15.131  13.854
   15.476  16.623  14.937  14.837  14.474  13.208  13.671  15.730  15.222  15.119  15.102  15.921  14.345
   13.706  13.088  14.146  14.360  13.855  13.647  14.602  15.667  15.400  17.274  15.000  15.822  15.162
   14.266  12.812  13.888  14.167  14.131  14.856  14.341  14.561  15.756  16.958  15.229  15.866  14.987
   13.561  14.825  13.918  14.922  14.938  14.873  13.556  14.399  14.653  15.460  14.804  14.854  16.237
   12.865  14.359  14.214  12.922  13.775  14.381  14.472  14.601  15.311  14.745  13.080  12.381  15.779
   13.691  14.177  14.964  14.692  14.667  15.781  15.674  13.182  16.276  12.073  11.709  12.055  13.837
   15.344  15.053  16.074  14.311  13.108  13.888  14.692  14.406  11.589  14.466  13.001  14.345  10.998
   14.563  14.828  16.949  14.366  11.027  13.413  10.793  12.724  12.210  13.153  12.750  11.072  12.133
   12.466  11.942  14.353  12.517  11.911  14.108  12.647  12.796  13.522  12.773  10.763  13.205  12.120
   10.808  10.484  11.337  12.782  13.386  14.055  12.851  12.639  13.425  13.055  11.972  12.977  10.660

    0.850  13.388
   15.835  16.360  16.539  16.959  16.316  15.197  15.588  14.690  13.971  13.564  15.192  15.134  15.231
   16.174  16.259  15.959  17.674  14.908  15.098  13.945  13.808  14.074  14.818  14.482  15.946  16.579
   15.700  16.112  15.024  15.122  14.881  13.756  13.348  15.250  14.606  14.354  15.807  15.179  13.841
   15.536  17.294  14.366  14.329  14.009  13.555  14.392  15.643  14.683  15.188  15.512  15.295  14.845
   13.388  13.623  14.744  14.760  13.612  14.393  14.477  15.562  15.902  17.313  14.818  15.620  14.712
   13.860  13.405  14.229  13.904  14.103  14.729  14.587  14.845  15.938  17.184  15.745  15.923  15.484
   13.509  15.063  14.438  14.643  14.331  14.775  13.388  14.572  14.497  15.777  14.791  14.758  16.293
   14.017  14.461  14.476  12.497  13.335  13.816  14.532  14.999  15.042  14.091  12.834  12.507  15.021
   13.708  13.935  15.031  15.017  14.797  14.893  15.874  12.354  16.558  12.604  11.623  12.565  14.593
   15.194  15.575  16.348  13.886  13.185  13.867  14.154  14.377  11.195  14.199  13.074  14.616  10.172
   15.110  15.343  15.884  13.980  11.564  13.753  10.537  12.361  11.869  12.846  13.218  10.845  12.001
   12.546  11.395  14.136  13.085  12.203  13.986  11.981  13.061  13.928  12.727  10.162  13.086  12.877
   10.767  11.554  11.367  12.575  12.862  14.213  13.029  12.176  14.069  13.299  11.156  12.265  10.525

    0.900  13.664
   15.700  17.071  16.289  17.231  16.579  15.325  15.567  14.347  14.182  14.065  14.386  14.681  15.431
   16.192  16.349  16.116  17.802  14.446  14.805  13.927  14.164  13.194  15.270  14.217  16.276  16.845
   15.699  15.809  15.279  14.903  15.312  13.779  13.822  15.462  14.549  15.142  15.773  14.568  14.274
   15.262  17.559  14.487  14.382  14.279  14.170  14.257  15.824  15.207  14.854  15.443  14.980  14.291
   13.701  13.782  15.206  15.179  13.594  14.497  14.337  15.664  15.314  16.944  14.537  15.723  15.000
   14.297  13.170  14.323  14.172  14.450  14.597  14.301  14.535  15.576  17.590  15.789  15.874  16.067
   13.437  15.253  14.293  14.722  14.456  14.978  13.664  14.682  14.438  15.900  14.578  14.806  15.534
   13.871  14.850  14.218  12.825  13.207  13.888  14.373  14.549  14.378  14.269  12.314  11.895  14.742
   13.589  13.862  15.676  15.039  14.174  14.369  15.615  12.530  16.208  12.689  11.765  12.907  14.905
   16.110  15.950  16.239  13.911  13.194  14.066  13.753  14.747  11.344  13.213  13.383  14.682   9.923
   15.004  15.679  15.328  14.009  11.762  13.938  10.213  12.533  11.429  12.222  12.643  10.931  12.447
   11.770  12.006  14.046  13.221  12.289  13.899  11.617  12.719  13.723  12.824  10.606  12.785  12.910
   10.656  12.263  11.398  12.196  12.991  14.246  13.191  12.426  12.897  13.642  11.250  11.842  10.851

    0.950  13.471
   15.546  17.406  16.275  17.098  16.000  15.704  15.333  14.298  14.103  14.299  14.721  15.179  15.796
   16.025  16.095  15.818  17.471  14.491  14.516  14.004  14.458  13.442  15.991  14.201  16.310  16.855
   15.805  15.712  15.743  14.898  15.552  14.030  13.987  14.936  14.848  15.565  15.668  15.348  14.273
   15.560  17.643  14.612  14.200  14.395  14.172  14.214  15.957  15.191  15.469  15.693  15.129  13.958
   14.160  14.321  15.436  15.223  13.546  14.786  14.878  15.445  15.638  17.279  14.153  16.129  14.523
   14.376  13.428  14.498  14.743  13.982  14.311  14.121  14.437  15.748  17.809  16.044  15.298  16.349
   14.100  14.659  14.405  14.446  14.580  15.228  13.471  14.945  15.070  15.807  14.358  14.683  15.714
   13.823  15.016  14.743  12.845  13.510  13.921  13.981  15.038  13.934  14.505  12.895  12.616  14.799
   13.039  14.303  16.203  15.229  14.145  14.109  14.957  12.399  15.877  12.472  11.021  13.589  15.447
   16.636  16.170  15.486  13.708  12.272  13.777  13.557  14.460  11.509  13.628  13.184  14.879  10.468
   15.652  16.003  14.620  13.856  11.151  14.079  10.166  12.874  11.154  12.553  12.955  11.456  11.385
   11.761  12.060  13.125  13.152  12.177  15.259  13.211  12.455  14.089  12.820  11.020  12.698  13.380
   10.894  12.145  11.655  11.551  12.656  14.446  13.459  13.237  12.839  13.104  11.061  11.955  11.146

    1.000  13.616
   15.472  17.111  16.729  17.251  15.960  15.604  15.046  14.561  13.870  14.379  14.262  15.415  15.778
   15.777  16.025  16.036  17.587  14.757  14.603  14.092  14.590  13.446  15.974  14.232  15.878  16.901
   15.718  15.666  15.367  14.400  15.259  14.340  13.848  14.786  14.813  15.443  15.553  15.228  13.705
   15.689  17.648  14.318  14.184  14.064  14.386  14.053  15.829  15.079  16.222  15.683  15.279  13.857
   13.987  14.734  15.366  14.250  13.167  15.176  14.079  15.335  15.772  17.732  14.591  16.117  14.337
   14.064  13.834  14.847  14.545  14.439  14.780  14.090  14.996  16.653  17.850  16.115  15.418  15.702
   14.388  14.512  14.787  14.166  14.079  15.079  13.616  14.233  15.128  15.750  13.925  14.874  16.056
   13.505  15.186  14.998  13.206  13.081  13.136  13.670  14.494  14.290  14.425  13.583  13.092  14.694
   12.700  13.927  16.372  14.220  14.667  13.529  14.220  12.749  14.695  12.521  11.304  12.929  15.758
   16.070  15.290  15.331  14.155  12.068  13.851  13.362  14.098  11.913  13.600  13.323  14.161   9.949
   16.210  15.243  14.210  14.199  11.993  13.997  10.312  12.686  11.378  12.759  13.049  11.692  11.153