! This hub-height wind-speed file was generated by TurbSim (v1.08.00c-bjj, 10-Jul-2014) on 11-Jul-2014 at 09:32:02.
!
! The requested statistics for this data were:
!    Mean Total Wind Speed =    1.114 m/s
!
!   Time  HorSpd  WndDir  VerSpd  HorShr  VerShr  LnVShr  GstSpd
!  (sec)   (m/s)   (deg)   (m/s)     (-)     (-)     (-)   (m/s)
   0.000    1.20    0.61   -0.04   0.000   0.134   0.000    0.00
   0.050    1.20    0.57   -0.05   0.000   0.134   0.000    0.00
   0.100    1.21    0.90   -0.04   0.000   0.134   0.000    0.00
   0.150    1.21    1.68   -0.03   0.000   0.134   0.000    0.00
   0.200    1.21    1.18   -0.03   0.000   0.134   0.000    0.00
   0.250    1.21   -0.50   -0.05   0.000   0.134   0.000    0.00
   0.300    1.20   -0.22   -0.04   0.000   0.134   0.000    0.00
   0.350    1.19    0.72   -0.03   0.000   0.134   0.000    0.00
   0.400    1.19    0.71   -0.03   0.000   0.134   0.000    0.00
   0.450    1.20    0.63   -0.02   0.000   0.134   0.000    0.00
   0.500    1.19    0.68   -0.02   0.000   0.134   0.000    0.00
   0.550    1.20   -0.28   -0.02   0.000   0.134   0.000    0.00
   0.600    1.21   -1.32   -0.03   0.000   0.134   0.000    0.00
   0.650    1.23   -0.90   -0.03   0.000   0.134   0.000    0.00
   0.700    1.22   -0.88   -0.01   0.000   0.134   0.000    0.00
   0.750    1.23   -0.82    0.00   0.000   0.134   0.000    0.00
   0.800    1.23   -0.66    0.00   0.000   0.134   0.000    0.00
   0.850    1.22   -0.20    0.00   0.000   0.134   0.000    0.00
   0.900    1.22   -0.20    0.01   0.000   0.134   0.000    0.00
   0.950    1.22    0.01    0.00   0.000   0.134   0.000    0.00
   1.000    1.22   -0.31   -0.01   0.000   0.134   0.000    0.00
   1.050    1.21   -0.40   -0.01   0.000   0.134   0.000    0.00
   1.100    1.20   -1.02   -0.01   0.000   0.134   0.000    0.00
   1.150    1.20   -0.97   -0.01   0.000   0.134   0.000    0.00
   1.200    1.19   -1.42    0.00   0.000   0.134   0.000    0.00
   1.250    1.19   -2.33    0.00   0.000   0.134   0.000    0.00
   1.300    1.23   -2.24   -0.01   0.000   0.134   0.000    0.00
   1.350    1.22   -2.16   -0.01   0.000   0.134   0.000    0.00
   1.400    1.21   -1.59   -0.01   0.000   0.134   0.000    0.00
   1.450    1.21   -1.90   -0.01   0.000   0.134   0.000    0.00
   1.500    1.22   -2.30   -0.01   0.000   0.134   0.000    0.00
   1.550    1.22   -2.87   -0.02   0.000   0.134   0.000    0.00
   1.600    1.23   -3.38   -0.01   0.000   0.134   0.000    0.00
   1.650    1.22   -2.85   -0.02   0.000   0.134   0.000    0.00
   1.700    1.22   -2.61   -0.01   0.000   0.134   0.000    0.00
   1.750    1.20   -3.69   -0.02   0.000   0.134   0.000    0.00
   1.800    1.21   -3.92    0.00   0.000   0.134   0.000    0.00
   1.850    1.21   -3.70    0.00   0.000   0.134   0.000    0.00
   1.900    1.23   -3.06    0.00   0.000   0.134   0.000    0.00
   1.950    1.23   -3.51    0.01   0.000   0.134   0.000    0.00
   2.000    1.22   -3.24    0.00   0.000   0.134   0.000    0.00
   2.050    1.21   -2.61   -0.01   0.000   0.134   0.000    0.00
   2.100    1.21   -2.60    0.01   0.000   0.134   0.000    0.00
   2.150    1.22   -2.38    0.01   0.000   0.134   0.000    0.00
   2.200    1.23   -2.58    0.01   0.000   0.134   0.000    0.00
   2.250    1.23   -1.82    0.00   0.000   0.134   0.000    0.00
   2.300    1.22   -2.03    0.01   0.000   0.134   0.000    0.00
   2.350    1.22   -2.11   -0.01   0.000   0.134   0.000    0.00
   2.400    1.22   -2.61    0.00   0.000   0.134   0.000    0.00
   2.450    1.21   -3.03    0.00   0.000   0.134   0.000    0.00
   2.500    1.22   -3.20   -0.01   0.000   0.134   0.000    0.00
   2.550    1.22   -3.64   -0.01   0.000   0.134   0.000    0.00
   2.600    1.22   -4.47    0.02   0.000   0.134   0.000    0.00
   2.650    1.22   -4.76    0.01   0.000   0.134   0.000    0.00
   2.700    1.23   -4.47    0.02   0.000   0.134   0.000    0.00
   2.750    1.22   -4.66    0.02   0.000   0.134   0.000    0.00
   2.800    1.21   -3.58    0.01   0.000   0.134   0.000    0.00
   2.850    1.21   -3.23    0.00   0.000   0.134   0.000    0.00
   2.900    1.21   -3.55    0.02   0.000   0.134   0.000    0.00
   2.950    1.22   -3.69    0.01   0.000   0.134   0.000    0.00
   3.000    1.21   -3.92    0.00   0.000   0.134   0.000    0.00
   3.050    1.21   -3.67    0.01   0.000   0.134   0.000    0.00
   3.100    1.20   -3.60    0.01   0.000   0.134   0.000    0.00
   3.150    1.20   -3.47    0.01   0.000   0.134   0.000    0.00
   3.200    1.21   -3.20    0.01   0.000   0.134   0.000    0.00
   3.250    1.21   -3.54    0.00   0.000   0.134   0.000    0.00
   3.300    1.21   -2.98    0.00   0.000   0.134   0.000    0.00
   3.350    1.22   -3.81   -0.01   0.000   0.134   0.000    0.00
   3.400    1.21   -3.81   -0.01   0.000   0.134   0.000    0.00
   3.450    1.21   -4.10   -0.01   0.000   0.134   0.000    0.00
   3.500    1.20   -3.38   -0.01   0.000   0.134   0.000    0.00
   3.550    1.19   -3.08    0.00   0.000   0.134   0.000    0.00
   3.600    1.18   -2.36    0.00   0.000   0.134   0.000    0.00
   3.650    1.17   -1.76    0.00   0.000   0.134   0.000    0.00
   3.700    1.17   -1.27    0.00   0.000   0.134   0.000    0.00
   3.750    1.17   -1.85   -0.01   0.000   0.134   0.000    0.00
   3.800    1.17   -1.58   -0.01   0.000   0.134   0.000    0.00
   3.850    1.17   -2.30   -0.01   0.000   0.134   0.000    0.00
   3.900    1.17   -2.68   -0.01   0.000   0.134   0.000    0.00
   3.950    1.18   -2.56   -0.01   0.000   0.134   0.000    0.00
   4.000    1.18   -2.41   -0.01   0.000   0.134   0.000    0.00
   4.050    1.18   -1.80    0.00   0.000   0.134   0.000    0.00
   4.100    1.17   -0.64    0.01   0.000   0.134   0.000    0.00
   4.150    1.16   -1.32    0.01   0.000   0.134   0.000    0.00
   4.200    1.16   -1.72    0.01   0.000   0.134   0.000    0.00
   4.250    1.17   -1.08    0.02   0.000   0.134   0.000    0.00
   4.300    1.15   -0.67    0.02   0.000   0.134   0.000    0.00
   4.350    1.16   -0.60    0.02   0.000   0.134   0.000    0.00
   4.400    1.18   -0.61    0.01   0.000   0.134   0.000    0.00
   4.450    1.20   -0.92    0.00   0.000   0.134   0.000    0.00
   4.500    1.19   -1.72   -0.01   0.000   0.134   0.000    0.00
   4.550    1.19   -2.14    0.01   0.000   0.134   0.000    0.00
   4.600    1.18   -1.26    0.00   0.000   0.134   0.000    0.00
   4.650    1.20   -0.46   -0.01   0.000   0.134   0.000    0.00
   4.700    1.19   -1.02    0.00   0.000   0.134   0.000    0.00
   4.750    1.20   -0.56   -0.01   0.000   0.134   0.000    0.00
   4.800    1.19   -0.92   -0.01   0.000   0.134   0.000    0.00
   4.850    1.19   -1.15   -0.01   0.000   0.134   0.000    0.00
   4.900    1.19   -0.10    0.00   0.000   0.134   0.000    0.00
   4.950    1.20    0.11   -0.01   0.000   0.134   0.000    0.00
   5.000    1.21    0.34   -0.02   0.000   0.134   0.000    0.00
   5.050    1.22    0.85    0.01   0.000   0.134   0.000    0.00
   5.100    1.22    1.49    0.02   0.000   0.134   0.000    0.00
   5.150    1.21    1.16    0.02   0.000   0.134   0.000    0.00
   5.200    1.21    0.51    0.04   0.000   0.134   0.000    0.00
   5.250    1.20    0.02    0.04   0.000   0.134   0.000    0.00
   5.300    1.18   -0.84    0.06   0.000   0.134   0.000    0.00
   5.350    1.17    0.29    0.06   0.000   0.134   0.000    0.00
   5.400    1.18    0.32    0.05   0.000   0.134   0.000    0.00
   5.450    1.18    0.32    0.05   0.000   0.134   0.000    0.00
   5.500    1.16    0.71    0.06   0.000   0.134   0.000    0.00
   5.550    1.14    0.93    0.06   0.000   0.134   0.000    0.00
   5.600    1.15    1.18    0.07   0.000   0.134   0.000    0.00
   5.650    1.16    1.27    0.06   0.000   0.134   0.000    0.00
   5.700    1.16    0.96    0.06   0.000   0.134   0.000    0.00
   5.750    1.17    1.49    0.07   0.000   0.134   0.000    0.00
   5.800    1.17    1.19    0.06   0.000   0.134   0.000    0.00
   5.850    1.18    1.28    0.07   0.000   0.134   0.000    0.00
   5.900    1.17    1.97    0.06   0.000   0.134   0.000    0.00
   5.950    1.16    1.72    0.05   0.000   0.134   0.000    0.00
   6.000    1.16    1.11    0.04   0.000   0.134   0.000    0.00
   6.050    1.17    1.41    0.04   0.000   0.134   0.000    0.00
   6.100    1.18    1.40    0.03   0.000   0.134   0.000    0.00
   6.150    1.18    1.43    0.03   0.000   0.134   0.000    0.00
   6.200    1.18    0.85    0.03   0.000   0.134   0.000    0.00
   6.250    1.19    1.40    0.02   0.000   0.134   0.000    0.00
   6.300    1.19    1.60    0.03   0.000   0.134   0.000    0.00
   6.350    1.20    1.43    0.02   0.000   0.134   0.000    0.00
   6.400    1.20    1.59    0.02   0.000   0.134   0.000    0.00
   6.450    1.20    1.93    0.01   0.000   0.134   0.000    0.00
   6.500    1.20    1.75    0.02   0.000   0.134   0.000    0.00
   6.550    1.23    2.75    0.02   0.000   0.134   0.000    0.00
   6.600    1.24    3.22    0.03   0.000   0.134   0.000    0.00
   6.650    1.25    2.62    0.03   0.000   0.134   0.000    0.00
   6.700    1.27    2.10    0.02   0.000   0.134   0.000    0.00
   6.750    1.27    1.39    0.00   0.000   0.134   0.000    0.00
   6.800    1.28    1.06    0.00   0.000   0.134   0.000    0.00
   6.850    1.29    1.05    0.02   0.000   0.134   0.000    0.00
   6.900    1.28    0.87    0.02   0.000   0.134   0.000    0.00
   6.950    1.27    1.67    0.02   0.000   0.134   0.000    0.00
   7.000    1.29    2.25    0.01   0.000   0.134   0.000    0.00
   7.050    1.27    2.02    0.03   0.000   0.134   0.000    0.00
   7.100    1.25    2.98    0.04   0.000   0.134   0.000    0.00
   7.150    1.26    2.83    0.03   0.000   0.134   0.000    0.00
   7.200    1.26    2.14    0.03   0.000   0.134   0.000    0.00
   7.250    1.27    2.50    0.02   0.000   0.134   0.000    0.00
   7.300    1.27    3.04    0.02   0.000   0.134   0.000    0.00
   7.350    1.25    2.76    0.02   0.000   0.134   0.000    0.00
   7.400    1.26    2.67    0.02   0.000   0.134   0.000    0.00
   7.450    1.28    2.58    0.01   0.000   0.134   0.000    0.00
   7.500    1.27    1.72    0.00   0.000   0.134   0.000    0.00
   7.550    1.26    2.08    0.00   0.000   0.134   0.000    0.00
   7.600    1.28    1.79    0.00   0.000   0.134   0.000    0.00
   7.650    1.26    1.59    0.00   0.000   0.134   0.000    0.00
   7.700    1.26    2.24    0.00   0.000   0.134   0.000    0.00
   7.750    1.25    1.78    0.01   0.000   0.134   0.000    0.00
   7.800    1.23    1.61    0.02   0.000   0.134   0.000    0.00
   7.850    1.22    0.93    0.02   0.000   0.134   0.000    0.00
   7.900    1.21    0.14    0.03   0.000   0.134   0.000    0.00
   7.950    1.21    0.76    0.03   0.000   0.134   0.000    0.00
   8.000    1.22    0.20    0.04   0.000   0.134   0.000    0.00
   8.050    1.24    0.53    0.04   0.000   0.134   0.000    0.00
   8.100    1.23    0.63    0.02   0.000   0.134   0.000    0.00
   8.150    1.24    0.38    0.02   0.000   0.134   0.000    0.00
   8.200    1.26    0.81    0.01   0.000   0.134   0.000    0.00
   8.250    1.25    0.97    0.01   0.000   0.134   0.000    0.00
   8.300    1.25   -0.62    0.01   0.000   0.134   0.000    0.00
   8.350    1.24   -1.00    0.01   0.000   0.134   0.000    0.00
   8.400    1.25   -1.23    0.01   0.000   0.134   0.000    0.00
   8.450    1.24   -1.30    0.01   0.000   0.134   0.000    0.00
   8.500    1.23   -1.08    0.02   0.000   0.134   0.000    0.00
   8.550    1.24   -1.05    0.03   0.000   0.134   0.000    0.00
   8.600    1.25   -0.70    0.01   0.000   0.134   0.000    0.00
   8.650    1.24   -0.75    0.02   0.000   0.134   0.000    0.00
   8.700    1.24   -1.11    0.02   0.000   0.134   0.000    0.00
   8.750    1.25   -1.89    0.01   0.000   0.134   0.000    0.00
   8.800    1.26   -2.23    0.01   0.000   0.134   0.000    0.00
   8.850    1.26   -1.63    0.01   0.000   0.134   0.000    0.00
   8.900    1.27   -1.69    0.01   0.000   0.134   0.000    0.00
   8.950    1.27   -1.22    0.00   0.000   0.134   0.000    0.00
   9.000    1.27   -0.58   -0.02   0.000   0.134   0.000    0.00
   9.050    1.29   -0.54   -0.03   0.000   0.134   0.000    0.00
   9.100    1.29   -0.69   -0.01   0.000   0.134   0.000    0.00
   9.150    1.28   -0.55    0.00   0.000   0.134   0.000    0.00
   9.200    1.26   -0.40    0.01   0.000   0.134   0.000    0.00
   9.250    1.24   -1.58    0.01   0.000   0.134   0.000    0.00
   9.300    1.26   -2.15    0.01   0.000   0.134   0.000    0.00
   9.350    1.26   -1.81    0.02   0.000   0.134   0.000    0.00
   9.400    1.26   -1.99    0.01   0.000   0.134   0.000    0.00
   9.450    1.26   -1.95    0.01   0.000   0.134   0.000    0.00
   9.500    1.29   -1.72    0.01   0.000   0.134   0.000    0.00
   9.550    1.30   -2.32   -0.01   0.000   0.134   0.000    0.00
   9.600    1.30   -2.95   -0.01   0.000   0.134   0.000    0.00
   9.650    1.30   -2.95   -0.02   0.000   0.134   0.000    0.00
   9.700    1.29   -2.60   -0.01   0.000   0.134   0.000    0.00
   9.750    1.29   -2.26   -0.01   0.000   0.134   0.000    0.00
   9.800    1.30   -1.60    0.00   0.000   0.134   0.000    0.00
   9.850    1.30   -1.91    0.00   0.000   0.134   0.000    0.00
   9.900    1.31   -1.04    0.00   0.000   0.134   0.000    0.00
   9.950    1.30   -0.85    0.00   0.000   0.134   0.000    0.00
  10.000    1.29   -0.97    0.01   0.000   0.134   0.000    0.00
  10.050    1.30   -0.39    0.00   0.000   0.134   0.000    0.00
  10.100    1.29   -0.46    0.01   0.000   0.134   0.000    0.00
  10.150    1.30   -0.97    0.01   0.000   0.134   0.000    0.00
  10.200    1.30   -0.61    0.02   0.000   0.134   0.000    0.00
  10.250    1.30   -0.26    0.01   0.000   0.134   0.000    0.00
  10.300    1.30   -0.46   -0.01   0.000   0.134   0.000    0.00
  10.350    1.31    0.06   -0.01   0.000   0.134   0.000    0.00
  10.400    1.30    0.51   -0.01   0.000   0.134   0.000    0.00
  10.450    1.30    0.98   -0.01   0.000   0.134   0.000    0.00
  10.500    1.30    1.83   -0.01   0.000   0.134   0.000    0.00
  10.550    1.29    1.86    0.00   0.000   0.134   0.000    0.00
  10.600    1.31    1.86    0.00   0.000   0.134   0.000    0.00
  10.650    1.29    2.24    0.01   0.000   0.134   0.000    0.00
  10.700    1.28    1.53    0.00   0.000   0.134   0.000    0.00
  10.750    1.27    1.13    0.01   0.000   0.134   0.000    0.00
  10.800    1.26    1.13    0.02   0.000   0.134   0.000    0.00
  10.850    1.28    1.03    0.02   0.000   0.134   0.000    0.00
  10.900    1.28    1.22    0.02   0.000   0.134   0.000    0.00
  10.950    1.28    2.01    0.00   0.000   0.134   0.000    0.00
  11.000    1.26    1.62    0.01   0.000   0.134   0.000    0.00
  11.050    1.25    1.97    0.02   0.000   0.134   0.000    0.00
  11.100    1.24    2.38    0.02   0.000   0.134   0.000    0.00
  11.150    1.22    2.25    0.01   0.000   0.134   0.000    0.00
  11.200    1.23    2.46    0.00   0.000   0.134   0.000    0.00
  11.250    1.24    1.92   -0.02   0.000   0.134   0.000    0.00
  11.300    1.23    1.88   -0.02   0.000   0.134   0.000    0.00
  11.350    1.24    1.18   -0.02   0.000   0.134   0.000    0.00
  11.400    1.24    1.76   -0.02   0.000   0.134   0.000    0.00
  11.450    1.23    1.04   -0.01   0.000   0.134   0.000    0.00
  11.500    1.26    1.54   -0.01   0.000   0.134   0.000    0.00
  11.550    1.25    0.88   -0.01   0.000   0.134   0.000    0.00
  11.600    1.24    0.54   -0.02   0.000   0.134   0.000    0.00
  11.650    1.25    1.66   -0.01   0.000   0.134   0.000    0.00
  11.700    1.24    1.67    0.00   0.000   0.134   0.000    0.00
  11.750    1.24    2.56   -0.02   0.000   0.134   0.000    0.00
  11.800    1.24    1.92   -0.02   0.000   0.134   0.000    0.00
  11.850    1.24    1.31    0.00   0.000   0.134   0.000    0.00
  11.900    1.25    1.83   -0.01   0.000   0.134   0.000    0.00
  11.950    1.24    1.85   -0.03   0.000   0.134   0.000    0.00
  12.000    1.24    1.47   -0.04   0.000   0.134   0.000    0.00
  12.050    1.24    1.44   -0.03   0.000   0.134   0.000    0.00
  12.100    1.24    1.06   -0.04   0.000   0.134   0.000    0.00
  12.150    1.26    1.24   -0.03   0.000   0.134   0.000    0.00
  12.200    1.24    0.79   -0.03   0.000   0.134   0.000    0.00
  12.250    1.26    1.29   -0.03   0.000   0.134   0.000    0.00
  12.300    1.24    1.67   -0.02   0.000   0.134   0.000    0.00
  12.350    1.25    0.19   -0.02   0.000   0.134   0.000    0.00
  12.400    1.26    0.58   -0.02   0.000   0.134   0.000    0.00
  12.450    1.27    1.34   -0.03   0.000   0.134   0.000    0.00
  12.500    1.26    0.89   -0.01   0.000   0.134   0.000    0.00
  12.550    1.25    0.80    0.00   0.000   0.134   0.000    0.00
  12.600    1.25    1.85   -0.01   0.000   0.134   0.000    0.00
  12.650    1.27    2.18   -0.02   0.000   0.134   0.000    0.00
  12.700    1.27    2.68   -0.03   0.000   0.134   0.000    0.00
  12.750    1.25    3.05   -0.03   0.000   0.134   0.000    0.00
  12.800    1.25    3.37   -0.03   0.000   0.134   0.000    0.00
  12.850    1.25    3.16   -0.03   0.000   0.134   0.000    0.00
  12.900    1.24    3.82   -0.04   0.000   0.134   0.000    0.00
  12.950    1.23    3.28   -0.03   0.000   0.134   0.000    0.00
  13.000    1.24    3.48   -0.03   0.000   0.134   0.000    0.00
  13.050    1.23    3.77   -0.03   0.000   0.134   0.000    0.00
  13.100    1.23    3.05   -0.03   0.000   0.134   0.000    0.00
  13.150    1.22    3.26   -0.04   0.000   0.134   0.000    0.00
  13.200    1.23    3.82   -0.03   0.000   0.134   0.000    0.00
  13.250    1.24    3.34   -0.03   0.000   0.134   0.000    0.00
  13.300    1.23    2.95   -0.02   0.000   0.134   0.000    0.00
  13.350    1.23    2.99   -0.03   0.000   0.134   0.000    0.00
  13.400    1.23    3.26   -0.05   0.000   0.134   0.000    0.00
  13.450    1.23    2.48   -0.04   0.000   0.134   0.000    0.00
  13.500    1.23    3.33   -0.03   0.000   0.134   0.000    0.00
  13.550    1.23    3.13   -0.03   0.000   0.134   0.000    0.00
  13.600    1.24    2.02   -0.03   0.000   0.134   0.000    0.00
  13.650    1.24    1.24   -0.04   0.000   0.134   0.000    0.00
  13.700    1.23    0.77   -0.04   0.000   0.134   0.000    0.00
  13.750    1.22    0.71   -0.03   0.000   0.134   0.000    0.00
  13.800    1.23   -0.16   -0.03   0.000   0.134   0.000    0.00
  13.850    1.23   -0.50   -0.02   0.000   0.134   0.000    0.00
  13.900    1.23   -0.32   -0.02   0.000   0.134   0.000    0.00
  13.950    1.23   -0.84   -0.03   0.000   0.134   0.000    0.00
  14.000    1.23   -0.24   -0.02   0.000   0.134   0.000    0.00
  14.050    1.25    0.00   -0.03   0.000   0.134   0.000    0.00
  14.100    1.24   -0.30   -0.02   0.000   0.134   0.000    0.00
  14.150    1.25   -0.79   -0.01   0.000   0.134   0.000    0.00
  14.200    1.27   -1.24   -0.02   0.000   0.134   0.000    0.00
  14.250    1.26   -0.63   -0.02   0.000   0.134   0.000    0.00
  14.300    1.25   -0.68   -0.02   0.000   0.134   0.000    0.00
  14.350    1.25   -0.34   -0.02   0.000   0.134   0.000    0.00
  14.400    1.25   -0.60   -0.02   0.000   0.134   0.000    0.00
  14.450    1.25   -0.08   -0.02   0.000   0.134   0.000    0.00
  14.500    1.26   -0.87   -0.01   0.000   0.134   0.000    0.00
  14.550    1.27   -0.67   -0.02   0.000   0.134   0.000    0.00
  14.600    1.26   -0.71   -0.02   0.000   0.134   0.000    0.00
  14.650    1.25    0.15   -0.03   0.000   0.134   0.000    0.00
  14.700    1.27   -0.28   -0.03   0.000   0.134   0.000    0.00
  14.750    1.27    0.20   -0.04   0.000   0.134   0.000    0.00
  14.800    1.27    0.60   -0.03   0.000   0.134   0.000    0.00
  14.850    1.26    0.48   -0.03   0.000   0.134   0.000    0.00
  14.900    1.25   -0.31   -0.03   0.000   0.134   0.000    0.00
  14.950    1.26    0.16   -0.03   0.000   0.134   0.000    0.00
  15.000    1.24   -0.14   -0.03   0.000   0.134   0.000    0.00
  15.050    1.26   -0.69   -0.05   0.000   0.134   0.000    0.00
  15.100    1.25   -0.91   -0.06   0.000   0.134   0.000    0.00
  15.150    1.24   -0.12   -0.06   0.000   0.134   0.000    0.00
  15.200    1.23   -0.06   -0.06   0.000   0.134   0.000    0.00
  15.250    1.23   -0.67   -0.04   0.000   0.134   0.000    0.00
  15.300    1.23   -1.02   -0.05   0.000   0.134   0.000    0.00
  15.350    1.24   -0.45   -0.06   0.000   0.134   0.000    0.00
  15.400    1.23   -0.95   -0.04   0.000   0.134   0.000    0.00
  15.450    1.23   -0.75   -0.05   0.000   0.134   0.000    0.00
  15.500    1.22   -0.78   -0.05   0.000   0.134   0.000    0.00
  15.550    1.22    0.17   -0.04   0.000   0.134   0.000    0.00
  15.600    1.22    0.42   -0.04   0.000   0.134   0.000    0.00
  15.650    1.23    0.23   -0.05   0.000   0.134   0.000    0.00
  15.700    1.24   -0.91   -0.05   0.000   0.134   0.000    0.00
  15.750    1.23   -1.39   -0.06   0.000   0.134   0.000    0.00
  15.800    1.24   -1.34   -0.07   0.000   0.134   0.000    0.00
  15.850    1.23   -0.42   -0.06   0.000   0.134   0.000    0.00
  15.900    1.20   -0.05   -0.05   0.000   0.134   0.000    0.00
  15.950    1.20   -0.69   -0.05   0.000   0.134   0.000    0.00
  16.000    1.18    0.48   -0.05   0.000   0.134   0.000    0.00
  16.050    1.19   -0.10   -0.05   0.000   0.134   0.000    0.00
  16.100    1.19    0.17   -0.06   0.000   0.134   0.000    0.00
  16.150    1.19   -0.18   -0.05   0.000   0.134   0.000    0.00
  16.200    1.21    0.64   -0.04   0.000   0.134   0.000    0.00
  16.250    1.19   -0.33   -0.03   0.000   0.134   0.000    0.00
  16.300    1.18   -1.19   -0.02   0.000   0.134   0.000    0.00
  16.350    1.19   -0.32   -0.03   0.000   0.134   0.000    0.00
  16.400    1.19   -0.79   -0.04   0.000   0.134   0.000    0.00
  16.450    1.19   -1.27   -0.06   0.000   0.134   0.000    0.00
  16.500    1.18   -1.11   -0.06   0.000   0.134   0.000    0.00
  16.550    1.18   -1.57   -0.05   0.000   0.134   0.000    0.00
  16.600    1.17   -1.49   -0.04   0.000   0.134   0.000    0.00
  16.650    1.18   -1.35   -0.05   0.000   0.134   0.000    0.00
  16.700    1.19   -0.12   -0.06   0.000   0.134   0.000    0.00
  16.750    1.21   -0.65   -0.06   0.000   0.134   0.000    0.00
  16.800    1.20   -0.83   -0.05   0.000   0.134   0.000    0.00
  16.850    1.20   -0.48   -0.05   0.000   0.134   0.000    0.00
  16.900    1.18   -0.26   -0.05   0.000   0.134   0.000    0.00
  16.950    1.17   -0.25   -0.03   0.000   0.134   0.000    0.00
  17.000    1.19   -0.26   -0.04   0.000   0.134   0.000    0.00
  17.050    1.19   -0.32   -0.04   0.000   0.134   0.000    0.00
  17.100    1.18   -0.93   -0.03   0.000   0.134   0.000    0.00
  17.150    1.18   -1.03   -0.04   0.000   0.134   0.000    0.00
  17.200    1.18   -0.65   -0.02   0.000   0.134   0.000    0.00
  17.250    1.18   -1.37   -0.03   0.000   0.134   0.000    0.00
  17.300    1.18   -1.09   -0.04   0.000   0.134   0.000    0.00
  17.350    1.18   -0.40   -0.02   0.000   0.134   0.000    0.00
  17.400    1.17   -1.61   -0.01   0.000   0.134   0.000    0.00
  17.450    1.18   -1.09   -0.02   0.000   0.134   0.000    0.00
  17.500    1.18   -1.69   -0.02   0.000   0.134   0.000    0.00
  17.550    1.17   -1.06   -0.01   0.000   0.134   0.000    0.00
  17.600    1.17   -1.22   -0.01   0.000   0.134   0.000    0.00
  17.650    1.15   -1.83    0.00   0.000   0.134   0.000    0.00
  17.700    1.14   -1.92   -0.01   0.000   0.134   0.000    0.00
  17.750    1.15   -2.55   -0.02   0.000   0.134   0.000    0.00
  17.800    1.14   -2.50   -0.02   0.000   0.134   0.000    0.00
  17.850    1.15   -3.07   -0.01   0.000   0.134   0.000    0.00
  17.900    1.15   -2.54   -0.01   0.000   0.134   0.000    0.00
  17.950    1.16   -1.52   -0.02   0.000   0.134   0.000    0.00
  18.000    1.15   -2.05   -0.02   0.000   0.134   0.000    0.00
  18.050    1.16   -3.03   -0.03   0.000   0.134   0.000    0.00
  18.100    1.16   -2.90   -0.02   0.000   0.134   0.000    0.00
  18.150    1.16   -2.58   -0.02   0.000   0.134   0.000    0.00
  18.200    1.16   -2.58   -0.02   0.000   0.134   0.000    0.00
  18.250    1.17   -2.11   -0.02   0.000   0.134   0.000    0.00
  18.300    1.15   -2.35   -0.02   0.000   0.134   0.000    0.00
  18.350    1.16   -2.57   -0.02   0.000   0.134   0.000    0.00
  18.400    1.15   -2.51   -0.01   0.000   0.134   0.000    0.00
  18.450    1.15   -2.00   -0.01   0.000   0.134   0.000    0.00
  18.500    1.14   -1.90    0.00   0.000   0.134   0.000    0.00
  18.550    1.14   -1.55    0.00   0.000   0.134   0.000    0.00
  18.600    1.13   -2.14   -0.01   0.000   0.134   0.000    0.00
  18.650    1.14   -1.45    0.01   0.000   0.134   0.000    0.00
  18.700    1.14   -1.88    0.00   0.000   0.134   0.000    0.00
  18.750    1.14   -3.19   -0.01   0.000   0.134   0.000    0.00
  18.800    1.14   -3.00    0.00   0.000   0.134   0.000    0.00
  18.850    1.13   -3.83    0.01   0.000   0.134   0.000    0.00
  18.900    1.13   -4.45    0.01   0.000   0.134   0.000    0.00
  18.950    1.14   -4.33    0.00   0.000   0.134   0.000    0.00
  19.000    1.15   -3.73    0.01   0.000   0.134   0.000    0.00
  19.050    1.16   -4.33    0.01   0.000   0.134   0.000    0.00
  19.100    1.15   -4.82    0.00   0.000   0.134   0.000    0.00
  19.150    1.16   -4.79    0.01   0.000   0.134   0.000    0.00
  19.200    1.16   -3.99    0.02   0.000   0.134   0.000    0.00
  19.250    1.16   -4.25    0.02   0.000   0.134   0.000    0.00
  19.300    1.16   -4.01    0.01   0.000   0.134   0.000    0.00
  19.350    1.18   -4.35    0.01   0.000   0.134   0.000    0.00
  19.400    1.19   -4.77    0.00   0.000   0.134   0.000    0.00
  19.450    1.18   -4.54    0.00   0.000   0.134   0.000    0.00
  19.500    1.19   -4.01    0.00   0.000   0.134   0.000    0.00
  19.550    1.17   -3.27    0.01   0.000   0.134   0.000    0.00
  19.600    1.17   -3.38    0.02   0.000   0.134   0.000    0.00
  19.650    1.17   -3.74    0.02   0.000   0.134   0.000    0.00
  19.700    1.19   -3.63    0.00   0.000   0.134   0.000    0.00
  19.750    1.18   -3.75    0.00   0.000   0.134   0.000    0.00
  19.800    1.17   -3.53    0.00   0.000   0.134   0.000    0.00
  19.850    1.16   -3.33    0.00   0.000   0.134   0.000    0.00
  19.900    1.15   -4.31    0.01   0.000   0.134   0.000    0.00
  19.950    1.15   -3.54    0.02   0.000   0.134   0.000    0.00
  20.000    1.15   -2.91    0.02   0.000   0.134   0.000    0.00
  20.050    1.16   -2.95    0.02   0.000   0.134   0.000    0.00
  20.100    1.14   -3.24    0.03   0.000   0.134   0.000    0.00
  20.150    1.15   -3.67    0.01   0.000   0.134   0.000    0.00
  20.200    1.16   -2.97    0.00   0.000   0.134   0.000    0.00
  20.250    1.15   -3.93    0.02   0.000   0.134   0.000    0.00
  20.300    1.16   -4.15    0.03   0.000   0.134   0.000    0.00
  20.350    1.13   -3.81    0.03   0.000   0.134   0.000    0.00
  20.400    1.12   -2.92    0.03   0.000   0.134   0.000    0.00
  20.450    1.10   -2.93    0.03   0.000   0.134   0.000    0.00
  20.500    1.13   -3.39    0.02   0.000   0.134   0.000    0.00
  20.550    1.12   -4.08    0.03   0.000   0.134   0.000    0.00
  20.600    1.13   -3.54    0.02   0.000   0.134   0.000    0.00
  20.650    1.12   -2.66    0.01   0.000   0.134   0.000    0.00
  20.700    1.13   -2.83    0.01   0.000   0.134   0.000    0.00
  20.750    1.15   -3.43    0.01   0.000   0.134   0.000    0.00
  20.800    1.14   -3.68    0.01   0.000   0.134   0.000    0.00
  20.850    1.14   -3.48    0.00   0.000   0.134   0.000    0.00
  20.900    1.14   -4.13    0.00   0.000   0.134   0.000    0.00
  20.950    1.14   -4.34    0.01   0.000   0.134   0.000    0.00
  21.000    1.14   -3.87   -0.01   0.000   0.134   0.000    0.00
  21.050    1.14   -4.40    0.00   0.000   0.134   0.000    0.00
  21.100    1.12   -4.74   -0.01   0.000   0.134   0.000    0.00
  21.150    1.12   -3.73    0.01   0.000   0.134   0.000    0.00
  21.200    1.10   -2.94    0.01   0.000   0.134   0.000    0.00
  21.250    1.10   -3.38    0.00   0.000   0.134   0.000    0.00
  21.300    1.10   -4.12   -0.01   0.000   0.134   0.000    0.00
  21.350    1.10   -3.50    0.01   0.000   0.134   0.000    0.00
  21.400    1.09   -3.33    0.00   0.000   0.134   0.000    0.00
  21.450    1.09   -3.04    0.00   0.000   0.134   0.000    0.00
  21.500    1.08   -2.21    0.01   0.000   0.134   0.000    0.00
  21.550    1.09   -1.53    0.00   0.000   0.134   0.000    0.00
  21.600    1.12   -1.52   -0.01   0.000   0.134   0.000    0.00
  21.650    1.14   -2.90   -0.02   0.000   0.134   0.000    0.00
  21.700    1.13   -2.35   -0.02   0.000   0.134   0.000    0.00
  21.750    1.14   -2.57   -0.02   0.000   0.134   0.000    0.00
  21.800    1.12   -2.35   -0.03   0.000   0.134   0.000    0.00
  21.850    1.14   -1.79   -0.03   0.000   0.134   0.000    0.00
  21.900    1.14   -1.40   -0.02   0.000   0.134   0.000    0.00
  21.950    1.15   -1.63   -0.03   0.000   0.134   0.000    0.00
  22.000    1.17   -1.56   -0.02   0.000   0.134   0.000    0.00
  22.050    1.17   -2.27   -0.02   0.000   0.134   0.000    0.00
  22.100    1.16   -2.17   -0.01   0.000   0.134   0.000    0.00
  22.150    1.17   -2.49   -0.01   0.000   0.134   0.000    0.00
  22.200    1.16   -2.30   -0.01   0.000   0.134   0.000    0.00
  22.250    1.18   -2.38   -0.01   0.000   0.134   0.000    0.00
  22.300    1.17   -2.44   -0.01   0.000   0.134   0.000    0.00
  22.350    1.18   -2.57   -0.01   0.000   0.134   0.000    0.00
  22.400    1.18   -2.00   -0.01   0.000   0.134   0.000    0.00