
This full-field turbulence file was generated by TurbSim (v1.08.00c-bjj, 10-Jul-2014) on 11-Jul-2014 at 09:32:14.

 | w-comp |  Y  x  Z  | Grid Resolution (Y x Z) | Time-step | Hub Elev | Mean U |
            13    13      6.667      6.667          0.050      84.29     15.00

 Z Coordinates (m):
  -40.000 -33.333 -26.667 -20.000 -13.333  -6.667   0.000   6.667  13.333  20.000  26.667  33.333  40.000

 Y Coordinates (m):
  -40.000 -33.333 -26.667 -20.000 -13.333  -6.667   0.000   6.667  13.333  20.000  26.667  33.333  40.000

    0.000  -0.631
   -0.139  -1.347  -1.034  -0.926   0.742  -0.370  -1.750   0.018   2.050  -0.567   0.513  -0.332   1.036
    0.928   0.916  -0.193  -0.254   0.317  -0.069  -0.741  -2.323   1.242   0.969  -2.432  -1.550   1.118
    0.536  -2.130   0.887  -0.080   0.509   0.338  -0.775  -0.379  -0.110   0.365   0.810   0.773   0.963
    0.757   1.931  -2.623  -0.760   0.378  -0.088  -0.844   0.017   0.123  -0.847  -0.249  -1.076   0.081
    0.782   1.092   0.663   0.100  -0.711   1.772   0.249   1.912   1.731   1.124  -0.615   1.502  -0.080
   -0.146  -0.970   1.983  -0.778   0.577  -1.716  -1.685   1.360   3.668  -0.636  -1.837   0.609   1.681
   -0.689  -0.611  -1.451   0.457  -0.549  -0.524  -0.631  -0.455   1.980   0.267   2.462   0.516  -0.892
    2.542  -0.442   0.682   2.433   0.530   0.489  -1.595   2.109   0.719  -0.420  -0.880   0.578  -0.002
   -0.425  -0.147   1.484   1.042  -1.569   0.272  -1.284   0.427   0.659  -0.511   0.302  -1.771  -0.894
    0.697  -0.998   2.127   0.300  -1.895   1.728   0.441   1.028  -1.591  -0.854  -0.519   0.285  -2.387
    1.904   0.078   0.592  -1.224   1.034  -1.007   0.222  -1.661  -1.034  -0.962   0.428   0.465  -0.682
    2.027   1.886  -1.033   0.464  -2.669  -0.680  -2.486   0.176   0.579   2.169  -1.590  -1.594  -0.996
    0.421  -0.809   2.543   1.079   0.357  -0.153  -0.627  -1.448  -0.480  -2.757  -1.519  -0.150  -1.831

    0.050  -0.192
   -0.648  -0.642  -1.043  -1.738   0.533  -0.122  -0.710  -1.055   2.136   0.484   0.661  -0.770   1.659
    1.149   0.214  -0.139  -1.033  -0.095   0.274  -0.091  -1.692   1.826   0.357  -2.318  -2.829   1.801
   -0.781  -1.461   1.044  -1.231   0.465   0.519  -0.803   0.107  -0.077   0.072   1.196  -0.511   0.868
    0.137   1.542  -1.885  -0.522   0.716   0.026  -0.457  -0.391   0.032  -1.218  -0.848  -0.924  -0.106
   -0.541   0.586   0.986  -0.588  -1.114   1.873  -0.607   2.034   1.022   1.435  -0.369   1.510  -0.160
    0.035  -1.426   1.004  -0.686   0.932  -1.506  -1.302   1.798   3.329  -0.198  -1.454  -0.130   2.061
   -0.707  -0.130  -1.377   0.894  -2.029  -1.035  -0.192  -0.632   2.162   1.030   2.700   0.309  -0.150
    1.011  -0.675   1.357   1.227   0.896   0.434  -1.422   1.366   0.566  -0.672  -1.447   1.075  -0.918
    0.072   0.464  -0.466   0.863  -1.985   1.501  -1.824   0.376   0.538  -0.045   0.915  -0.818  -1.289
    0.610  -0.835   1.803  -0.210  -0.742   1.703   1.334   1.707  -1.191  -0.965  -0.994  -0.353  -2.640
    2.003  -0.350   0.702  -0.259   0.157  -0.510   0.903  -1.938   0.130  -1.207   0.531   0.242   0.118
    1.417   1.715  -1.598   0.079  -2.981  -0.258  -3.276   0.001   0.390   2.254  -0.556  -1.077  -1.404
    0.441   0.354   2.531   1.470   0.969  -0.842  -1.611  -1.496  -0.089  -2.453  -0.972  -0.984  -1.312

    0.100  -0.222
    0.169   0.421  -1.175  -1.647   0.173   1.101  -1.041  -0.070   0.318  -1.441   0.949  -0.671   1.423
    1.672  -1.403  -0.270  -1.703  -0.292  -0.962  -0.629  -2.693   0.742   0.174  -2.973  -4.076   2.404
    1.046  -2.054   0.862  -1.097  -0.391   0.343  -1.208  -0.171   0.285  -0.481   1.877  -1.045   0.585
   -0.725   1.911  -1.551   0.033   1.939  -0.515  -0.425  -1.401   0.583  -0.964  -0.809  -0.696   0.081
   -0.258   0.643   0.806  -0.336  -1.205   1.398   0.542   1.825   1.305   0.347  -0.094   0.535  -1.434
   -0.054  -1.771   1.706  -0.480   1.070  -1.080  -1.892   0.992   2.665  -0.805  -1.622  -1.261   2.044
   -1.262   0.353  -1.196   0.094  -1.499  -1.054  -0.222   0.721   2.233   0.651   2.041   0.371   0.091
    1.048  -0.491   2.138   1.213   0.073   0.341  -0.792   0.801   0.461  -0.695  -0.576   1.703  -1.316
   -0.635   0.581  -0.294   0.596  -1.316   1.422  -1.177   0.637   0.271   1.219  -1.309  -1.001  -0.982
   -0.658  -0.561   1.800  -0.640  -0.736   1.855   1.651   1.461  -1.356  -0.612  -0.793   1.400  -1.091
    1.916  -0.227   1.546   0.570   0.850  -0.579   0.494  -1.656   1.290  -0.513   1.399   0.428   0.172
    1.402   0.444  -1.337   0.526  -3.073   0.570  -2.780   0.372  -0.201   1.581  -1.066  -0.418  -1.581
   -0.289   0.047   1.691   1.216   1.259  -1.278  -1.698  -1.786  -0.974  -1.610  -1.313  -0.498  -1.308

    0.150   0.411
    0.804   0.288  -0.482  -2.161   0.406   0.508  -0.663  -0.025   0.573  -1.514   1.689  -0.785   0.619
    1.218  -0.559   0.224  -2.131   0.516  -0.814  -0.615  -2.731   0.421  -0.175  -1.986  -3.739   1.985
    0.926  -2.444   1.299  -0.737  -0.837   0.775  -1.606   0.368   0.200  -0.585   2.359  -0.578  -0.186
   -0.213   1.243  -0.792   0.083   0.273  -0.222  -0.162  -0.719   0.265  -0.834  -1.772  -0.716  -0.468
   -0.663  -0.113   0.082  -1.011  -1.678   2.050   0.711   1.791   1.146   0.414  -0.460   0.065  -2.294
   -0.359  -1.958   1.861  -1.562   0.821  -1.524  -1.484   1.190   2.893  -0.907  -1.452  -1.084   1.570
   -0.707   0.921  -0.079  -0.729  -0.373  -1.458   0.411   1.267   1.368  -0.101   1.931   1.256  -0.241
    0.673   0.350   1.661   1.691  -0.048   0.118  -0.267   1.218   0.714   0.500  -0.970   1.252  -1.676
   -0.252   0.396  -0.142   0.278  -1.224   0.306  -0.234  -0.348   0.748   1.285  -1.271  -1.574  -1.379
   -0.385   0.240   1.101  -1.625  -1.801   1.701   1.619   1.722  -2.107  -1.425  -0.997   1.450  -1.293
    0.862  -1.118   1.613   0.700   1.396  -1.023   0.753   0.136   1.569  -0.501   0.429   0.908   0.109
   -0.249   0.870  -1.839   0.883  -2.767   0.274  -2.857   0.048  -0.402   0.674  -0.408  -0.022  -0.344
   -0.680  -0.225   2.701   0.372   1.511  -0.438  -1.219  -1.840  -0.186  -2.124  -1.947  -0.344  -1.818

    0.200   0.585
    0.283  -0.320  -1.014  -1.569   0.434  -0.196  -0.754   0.820   0.345  -0.757   1.933  -0.199   1.449
    1.601  -0.882   0.199  -1.289   0.724  -0.202  -1.888  -2.687   0.178  -0.994  -1.469  -2.522   2.026
    0.904  -1.888   0.608  -0.441  -0.434   1.467  -1.199   0.463  -0.172  -1.050   2.754   0.085   1.469
   -0.911   1.910   0.145  -0.552  -0.277  -0.556   0.490  -0.652  -0.361   0.220  -1.296  -1.768  -0.895
   -1.002  -0.124   0.406   0.372  -1.255   2.015  -0.993   2.560   0.055  -0.733  -0.865  -0.312  -1.522
    1.371  -1.167   1.755  -1.545   0.653  -2.184  -1.887   1.216   2.670  -0.400  -2.065  -1.149   2.182
   -0.002   1.354  -1.020  -1.910  -0.701  -2.122   0.585   1.954   2.263   0.229   1.331   1.910   0.766
    0.926   0.075   1.475   1.967  -0.531  -0.919   0.127   1.756   1.736  -0.405  -0.923   0.372  -0.769
   -0.339   0.924  -0.565   0.779  -2.053  -0.310   0.311  -1.661   0.278   1.204   0.188  -0.837  -1.012
    1.699   1.233   1.192  -2.269  -1.876   1.832   1.136   1.232  -2.582  -2.078  -2.247   1.850  -1.648
    0.811  -1.518   0.929   0.187   0.670  -0.965   0.710  -0.116   1.322  -0.799  -1.009   1.102   1.200
   -0.947   0.950  -0.782   0.418  -3.127   0.338  -2.089   0.067  -0.109   0.555  -0.145  -0.069   0.591
   -0.585  -0.343   2.667   0.217   1.041  -0.405  -1.454  -1.515  -0.048  -2.678  -1.704  -0.520  -1.552

    0.250   0.742
    0.326  -1.095  -0.874  -1.850  -0.463  -1.305  -0.430   0.018  -0.328   0.146   1.552  -0.186   0.663
    2.187  -0.206   0.189  -1.524   0.247   0.396  -1.344  -2.249  -0.638  -0.533  -2.546  -2.873   2.377
    1.144  -1.943   1.110   0.435  -0.429   1.141  -2.041  -0.672  -0.641  -1.026   1.205   0.123   0.638
   -1.088   1.803   1.340   0.095  -0.319   1.264   0.423  -0.826   0.057   0.042  -0.421  -1.304  -0.681
    0.312  -0.224  -0.174   0.648  -2.035   1.063  -0.162   1.611   0.302  -0.730  -0.742   0.222  -1.115
    2.098  -0.907   1.969  -0.767  -0.293  -2.054  -1.803   0.120   3.452  -0.272  -3.054  -2.084   1.766
    1.046   0.366  -0.696  -1.834  -0.795  -0.990   0.742   0.797   1.838   1.340   0.756   2.996   0.216
    1.264   0.459   1.424   0.775  -0.613  -1.550  -0.542   1.821   1.173  -0.149  -1.530   0.848   0.271
   -1.189   0.018  -0.296   0.541  -1.698   0.188   0.171  -1.688   1.048   0.004  -0.278  -1.112  -0.872
    1.942   1.863   1.348  -1.522  -0.894   1.645  -0.125   1.083  -2.604  -2.060  -2.023   2.153  -2.074
    0.933  -1.570  -0.106  -0.809   0.877  -0.872   1.188   0.055   2.371  -0.798  -2.162   0.860   0.777
   -1.471   1.137  -0.028   0.113  -2.567   0.709  -1.728  -0.588   0.195   0.056  -0.089  -0.354  -0.030
    0.233  -0.010   1.977   0.097  -0.097  -1.113  -0.916  -0.694  -0.925  -2.470  -1.446  -0.001  -1.357

    0.300   1.256
    0.174  -2.162  -0.925  -1.929  -1.220  -1.047  -1.234   0.550  -0.334   0.146   0.372  -0.532   0.356
    2.685   0.414  -0.030  -2.019   0.834   0.967  -1.093  -1.228   0.474   0.376  -2.086  -1.546   2.205
    0.114  -2.131   2.179  -0.874  -0.664   0.413  -1.043  -0.676  -0.592  -1.459   2.007  -0.302   0.205
   -0.403   1.201   0.452   1.424  -0.506   0.913  -0.005  -1.391  -0.096  -1.276  -0.713  -1.532  -0.890
   -1.260   0.295  -0.534   1.366  -1.548   0.665  -0.491   1.679   0.314   0.116  -0.566   0.010  -2.082
    1.039  -1.498   2.469  -1.353  -0.213  -1.371  -1.055  -0.657   3.609   0.850  -3.617  -1.944   2.685
    1.301  -0.135  -1.468  -0.276   0.484  -0.178   1.256   1.116   1.953   1.431   0.497   3.237   0.295
    2.517   0.943   1.681   0.210  -0.600  -1.447  -0.229   2.469   0.972  -0.272  -1.577   1.484   0.053
   -1.314   0.525  -0.502  -0.617  -1.776   0.527  -0.585  -1.549   0.551  -0.458   0.980  -0.328  -0.319
    1.256   0.665   0.009  -1.471  -2.213   1.974  -0.689   1.043  -2.080  -1.372  -2.070   1.887  -1.927
    2.098  -0.941   0.127  -0.240  -0.109  -0.477   1.053  -0.583   2.785  -1.810  -0.883   0.955  -0.650
   -0.345   1.001  -0.165   0.742  -1.390  -0.517  -1.945  -0.692  -0.583   1.531  -0.447  -0.179   0.636
    0.115   1.049   1.814   0.470   0.651  -1.286  -0.053  -0.133   0.553  -1.682  -1.308   0.424  -0.937

    0.350   0.888
   -1.036  -1.955  -0.255  -1.681  -1.333  -0.635  -1.567   1.078   0.389   0.266   0.811  -0.792   0.159
    2.937   0.788   0.603  -1.726   1.554   0.695   0.258  -1.606   0.451   0.329  -1.483  -1.359   1.524
    0.072  -1.794   1.909  -0.120  -0.845  -0.697  -1.354  -0.297  -0.942  -0.932   2.721   0.273   0.868
   -0.189   0.341   1.176   1.918  -0.304   1.620  -0.684  -2.506  -0.624  -0.517  -1.872  -2.308  -1.058
   -1.126   0.647   0.434   1.482  -0.555   1.465  -1.532   1.526  -0.390  -0.888   0.112  -0.322  -2.272
    2.167  -0.103   2.793  -0.823   0.780  -0.773  -1.346  -0.994   3.249   1.062  -4.192  -2.195   3.302
    1.005  -0.352  -1.346   0.169   0.765   0.995   0.888   2.109   0.616   0.728   0.235   3.772   0.358
    2.039   0.685   0.426   0.423  -0.356  -0.636   0.861   2.054   1.256   0.608  -1.210   0.995  -1.079
   -0.913   0.671   0.042  -1.304  -2.410   1.321  -0.135  -2.285   0.173  -1.231   0.697  -0.568  -0.043
    1.077   1.039   0.656  -1.690  -2.557   2.098  -0.362   0.751  -1.782  -0.834  -0.648   1.747  -2.743
    0.914  -0.752   0.079   0.221   0.403   0.940   0.998  -0.800   2.707  -1.465  -1.123   0.469  -0.901
   -0.388   0.613  -0.672   1.747  -1.303  -0.408  -1.735  -0.898  -1.541   1.540  -0.003  -0.337   0.599
   -0.698   0.579   1.039   0.178   0.685  -1.966  -0.113   0.154   0.863  -1.702  -0.514   1.038  -0.834

    0.400   1.575
   -0.157   0.137  -0.011  -1.366  -0.633  -0.257  -2.170   0.068  -0.158  -0.609   2.107  -1.001  -0.251
    1.379   0.991  -0.326  -1.430   0.337   1.339  -0.019  -2.153  -0.140   0.793  -1.506  -0.785   2.134
   -1.044  -1.280   2.224  -0.097  -1.597  -0.806  -0.801  -0.580  -1.179  -1.394   0.928   0.896  -0.186
   -2.256   0.845   0.779   1.184   0.354   1.452  -0.067  -2.572  -0.014   0.721  -2.066  -1.960  -1.139
   -1.002  -0.922   0.019   1.925  -0.774   1.130  -0.849   0.996  -0.088  -0.952   0.289   0.757  -2.674
    2.097   0.094   1.906  -0.346   1.245  -1.107  -1.235  -0.854   3.237  -0.382  -4.051  -0.216   2.816
    1.020   0.505  -1.032  -0.629   1.007   1.682   1.575   1.296  -0.139   2.103   0.652   3.720  -0.155
    3.459   0.324  -0.571   0.279  -0.550   0.023  -0.911   1.612   1.032   0.487  -0.860   1.276  -1.411
   -0.927   0.738  -0.112  -0.917  -0.585   0.901  -0.226  -1.845   0.080  -0.075   0.814   0.350  -0.087
    0.330   0.591   0.212  -1.595  -2.401   1.138  -0.313   0.512  -1.993  -0.357  -1.552   1.462  -2.597
    0.196  -1.605  -1.019   0.442   0.265   1.069   0.975   0.454   1.874  -1.260   0.099   0.979  -0.473
   -0.150   0.722   0.881   1.140  -0.486  -0.383  -1.201  -0.062  -0.858   0.995  -0.054  -0.907   0.346
   -0.247   0.316   0.515   0.226   0.246  -2.264  -0.688  -0.011   1.088  -1.614  -1.109  -0.824  -0.895

    0.450   1.631
   -0.110  -0.567  -0.559  -2.872  -1.689  -1.152  -2.124   0.881   0.717  -1.610   1.039  -0.971   0.183
    0.878   0.802  -0.583  -1.288   0.270   0.447  -0.866  -3.242  -0.431   1.550  -1.537  -0.654   1.465
   -0.882  -1.460   0.682   0.446  -1.215  -0.227  -0.872  -0.112  -1.126  -1.271   1.657   0.289   0.794
   -2.379   0.306   0.303   1.632  -0.017   0.347   0.946  -1.874  -0.690   0.107  -1.663  -1.667  -0.524
   -1.603  -1.852   0.834   1.972  -0.208   0.901   1.110   1.289  -0.626  -0.731  -0.478   0.103  -2.295
    0.773  -0.189   2.802   0.024   0.502  -2.292  -1.258  -0.866   1.981   1.160  -4.898  -1.111   3.088
    1.675   0.374  -1.288  -1.006   1.076   1.992   1.631   2.147   1.203   1.867   0.289   3.780  -0.154
    3.480   0.298  -0.203  -0.005  -0.354  -0.601  -1.671   1.350   1.292  -0.016  -0.272   0.948  -1.296
   -1.419   0.642   0.554  -0.856  -0.752   0.606  -0.896  -2.286  -0.155   0.501   0.567   0.557  -0.278
    0.062   0.840  -0.383  -1.270  -1.214   0.951  -0.321   0.749  -1.418  -0.038  -1.946   2.538  -3.036
    1.038  -1.422  -0.783   0.530   0.132   1.351   1.475   1.553   0.159  -1.022  -0.333   0.501  -0.545
   -0.720   0.302   1.610  -0.396  -0.867   0.297  -1.602   0.470  -0.245   1.286  -0.231  -0.262  -0.589
    0.283   0.508   0.515   0.383   0.743  -1.648  -0.414   0.036   0.345  -0.977  -1.369  -1.207  -1.675

    0.500   1.130
   -0.109  -1.501  -0.470  -3.231  -1.488  -1.694  -1.728   0.359   1.075  -1.549   0.460  -1.044   0.306
    0.459   0.948  -0.725  -1.549  -0.552  -0.171  -1.499  -2.316   0.130   1.537  -1.857  -0.816   2.252
   -1.001  -1.019   0.458  -0.122  -0.177  -0.700  -1.227   0.121  -0.988  -0.890   2.216   0.071   0.582
   -1.104  -0.403  -0.591   1.046   0.706   0.184   0.837  -0.912  -0.942  -0.174  -1.915  -1.424  -0.166
   -1.315  -1.018   0.384   1.874  -0.490   1.427   0.800   0.715  -0.396  -0.281  -0.385   0.175  -1.818
    1.066  -0.055   2.984  -0.110  -0.516  -1.628  -0.681  -1.265   2.021   1.338  -4.380  -1.044   3.458
    2.295  -0.483  -1.132   0.244   0.752   0.612   1.130   2.402   0.999   2.081   0.566   4.020  -1.323
    3.363   0.885   0.295   0.561  -0.761   0.312  -1.782  -0.389   1.815  -1.030   0.556   0.413   0.145
   -1.102   1.046   0.434  -0.031  -0.353   0.892  -0.136  -1.781  -0.093  -0.513  -0.050   0.117   0.171
   -0.379   0.814  -0.809  -0.937  -1.092  -0.732  -0.539   0.998  -1.200  -0.795  -1.200   2.288  -3.336
    0.192  -0.940   0.362  -0.277   0.286   2.429   2.325  -0.203   0.930  -1.187  -0.190  -0.057  -0.580
   -0.799   0.696   0.713   0.356  -0.703   0.170  -1.387   0.801  -0.491   2.062  -0.674  -0.276  -0.936
    0.279   0.951   0.033   0.956  -0.037  -1.787  -0.478   0.678  -1.305  -0.889  -1.405  -1.406  -1.346

    0.550   0.776
    0.354  -1.639   0.520  -2.301  -0.872  -1.932  -2.052   0.441   0.461  -0.736   0.617  -1.262  -0.509
    0.789   1.062  -1.226  -2.202  -0.839  -0.376  -0.933  -2.193  -0.049   1.949   0.199  -0.828   3.184
   -0.331  -0.516   1.012  -1.485  -0.900  -0.890  -0.563   0.547  -0.311  -0.594   1.629   0.579   0.648
   -0.429   0.000  -0.707   1.233   0.379   0.539   0.303  -0.379  -0.379  -0.783  -0.582  -1.459  -0.123
   -1.331  -0.873  -0.287   2.485  -0.320   0.548   0.403   0.777  -0.272  -0.255  -0.222   0.084  -1.724
    1.754   0.004   2.147  -0.304  -0.642  -0.388  -0.736  -1.354   1.816   1.153  -3.913  -0.020   2.577
    1.165   0.333   0.621   1.723   1.700   0.805   0.776   2.551   0.241   1.497   0.354   3.805  -1.784
    2.482   1.099   0.788   1.180  -0.445   0.084  -1.820   0.003   1.876  -0.265   0.610   0.064  -0.141
   -0.504   2.132   0.548  -0.180  -1.485   1.515  -1.058  -1.814  -0.218   1.482  -0.281   0.579  -0.440
   -0.121  -0.027  -1.154  -0.779  -1.248  -1.309  -0.361   0.089  -1.500  -1.060  -1.233   1.733  -2.046
    0.201  -1.602   0.236   0.190   0.035   2.338   1.036   0.384   1.743  -0.139  -1.239   0.137   0.489
   -0.586   0.332  -1.031   0.292  -0.664  -0.314  -3.300   0.896  -1.029   2.010  -1.377   0.592  -1.105
    0.565   1.466   0.264   1.297  -1.076  -1.532  -2.455   0.637  -0.681  -1.345  -1.264  -0.687  -1.151

    0.600   0.959
    0.104  -1.306   0.701  -2.058  -0.035  -1.551  -1.496   0.626  -0.375   0.031   1.062  -1.621  -0.764
    0.265   0.856  -0.963  -1.600  -0.965   1.591  -1.567  -1.989  -0.068   1.547   0.455  -1.352   2.671
    0.272   0.355   1.114  -2.741  -0.209  -0.454  -1.330   0.549  -0.163  -1.829   1.877   0.309   1.068
    0.247   0.195  -0.624   2.396   0.034   0.852  -0.198   0.408   1.095  -0.587  -0.156  -2.118  -0.174
   -0.214  -0.701  -0.158   2.843  -0.942   0.411   0.041   1.325  -0.729  -0.177  -0.460   0.616  -1.113
    1.030   0.122   1.675  -0.555  -1.011   0.083   1.347  -0.639   1.964   0.539  -3.000   0.315   1.609
    1.228   0.051   0.342   1.297   2.026   0.682   0.959   2.845   0.414   1.234   0.211   2.928  -1.067
    2.502   0.685   0.199   1.511   0.540   0.206  -1.860   0.088   1.874   0.096   0.833   0.600   0.814
   -0.260   1.923   0.347  -0.117  -1.647   1.666  -1.333  -1.851   0.612   0.321   0.559  -0.005  -0.210
    0.102   0.841  -1.275  -1.159  -2.098  -1.570  -0.506   0.708  -0.712  -0.724  -0.918   1.624  -1.671
    0.791  -0.122  -0.110  -0.266  -1.251   1.959   0.306   1.478   1.688  -0.543  -1.241   0.438   0.049
   -0.328   1.454  -0.484  -0.760  -2.026   0.981  -2.529   1.370  -0.909   2.145  -0.709   0.485  -2.107
    0.074   1.780   0.861   1.080  -1.314  -1.439  -3.306   0.263   0.954  -0.341  -0.511  -0.071  -1.196

    0.650   0.852
   -0.140  -0.930   0.776  -1.935  -0.825  -1.354  -2.006   0.104  -0.501  -0.212   0.823  -1.694  -0.247
    1.082   0.756  -0.631  -1.984  -0.664   1.213  -2.180  -1.367   0.664   2.019   0.377  -1.282   2.872
    0.357   0.605  -0.022  -2.946  -0.504   0.054  -0.382   0.307  -0.178  -1.386   1.847   0.090   1.875
    1.036   0.075   0.111   2.541   0.214   1.925  -0.137   0.995   1.102  -0.644   0.506  -1.811  -0.013
   -0.261  -0.524  -0.857   2.468  -0.434   0.445   0.284   0.985  -0.316  -0.906   0.514   0.453  -0.249
    0.432  -0.857   2.032  -0.541  -1.772  -0.186  -0.298  -1.032   0.932  -0.284  -1.533   0.304   2.086
    1.646   0.643   0.947   1.752   1.607   1.772   0.852   3.044   0.876   0.445   0.525   2.479  -0.250
    2.209   0.827   0.442   1.894   1.297   1.363  -1.158   0.051   2.056  -0.075   0.642   0.472   0.409
    1.043   0.725   0.143  -0.182  -2.174   1.546  -0.615  -0.807   1.985   0.694   0.377   0.928  -0.134
    0.532   0.805  -0.771  -0.523  -2.861  -1.266  -1.171   0.846  -1.238  -0.505  -0.637   1.017  -1.440
    0.611   1.849   0.872  -0.039  -1.221   2.009   0.224   1.267   1.874  -0.708  -0.534   0.560   0.106
   -1.875   2.076  -0.877  -1.350  -1.309   0.620  -1.447   1.657  -1.434   1.311  -1.142   0.364  -2.763
    0.842   0.875   0.710   0.786  -0.646  -1.014  -2.211   0.040   0.722  -0.832  -0.322  -0.073  -0.145

    0.700   0.382
    1.089  -0.594   0.222  -1.595  -0.686  -1.136  -2.640   0.547  -0.038  -0.483   0.639  -0.841   0.169
    0.668   0.269  -0.394  -1.478  -0.062   0.877  -2.172  -1.472   1.115   1.693   1.326  -0.430   3.233
   -0.223  -0.083   0.319  -2.024   0.907  -0.979  -0.418   0.386   0.050  -1.027   1.940  -0.370   0.650
    0.400   0.212  -0.405   1.861   0.745   2.029  -0.189   0.785   0.856  -0.733   0.894  -2.336   0.087
   -0.179  -0.575  -1.474   1.733  -0.674   0.413   0.852   0.209  -0.507  -0.497   0.760   0.386  -0.836
    1.452  -0.670   2.050   0.184  -2.053  -0.140  -1.442  -1.194   0.678  -0.297  -3.089  -0.128   2.312
    1.828   0.768   0.277   1.749   0.542   1.784   0.382   2.664   1.697   0.223  -0.383   2.299   1.403
    2.013   0.854   0.680   2.536   0.245   0.934  -1.415  -0.890   1.752  -0.629  -0.381   0.674  -0.006
   -0.225   2.026  -0.307  -0.286  -1.763   1.395  -2.486  -0.742   1.807  -0.447  -0.053  -0.098   0.183
    0.136   0.819  -0.705  -0.527  -2.775  -1.120  -0.946   0.915  -0.342  -1.522  -0.733   0.917  -1.042
   -0.136   1.373   1.293   1.211  -1.176   1.445  -0.093   2.184   2.266  -0.919  -0.313   0.909  -0.940
   -1.300   0.909  -1.237  -1.434  -0.756   1.073  -2.457   1.344  -0.821   1.052  -1.755   0.723  -2.134
    1.162  -0.362   0.828   1.145  -0.794  -0.904  -1.592  -0.544   0.253  -0.714   0.658   0.475   0.553

    0.750   1.100
    0.145  -1.730   1.548  -1.504   0.743  -1.224  -1.589   0.481  -0.030   0.105  -0.016  -0.475   0.593
    1.101   0.000  -0.528  -0.416   0.607   0.736  -2.130  -1.753   1.069   1.653   0.990  -0.123   2.333
   -0.608  -0.611   0.547  -2.204   1.362  -1.224  -0.116   0.971   0.999  -1.267   1.066  -0.450   0.722
    1.986   0.085  -0.135   1.471   0.546   2.576  -0.221   2.019   1.367  -0.651   0.990  -2.182  -0.092
   -0.208  -1.030  -2.405   2.911  -1.708   0.007   0.628   0.349  -0.473   0.161   0.908   0.433  -1.038
    1.102   0.174   1.331   1.088  -1.718   0.505  -0.590  -0.597   1.395  -0.056  -3.801  -0.922   2.320
    1.636  -0.544  -0.146   2.264  -0.115   0.242   1.100   2.027   0.986  -0.034  -0.817   2.498   2.197
    1.146   0.168  -1.085   2.353  -0.488   0.968  -2.914  -1.271   1.410   0.001  -0.749  -0.136   0.336
    1.013   1.597  -0.093  -0.933  -1.299   2.021  -1.467  -1.237   1.720  -0.887  -0.429  -0.117  -1.146
   -0.533   1.312  -0.782  -0.345  -1.256  -1.271  -0.958   0.024   0.354  -0.964  -0.519   0.514  -1.597
   -0.365   1.281   0.382   1.856  -2.195   1.659  -0.357   2.966   1.986  -0.991  -0.946   1.102  -2.378
   -1.529   0.047  -0.560  -0.970  -0.642   0.676  -3.154   1.516  -0.802   0.032  -1.195   2.334  -2.201
    2.629   0.045   1.846   0.192  -0.736  -0.506  -2.391  -0.463   0.457  -1.194   0.666  -0.840   0.308

    0.800   2.245
   -0.834  -0.934   2.547  -1.354   0.563  -0.372  -1.589   0.329   0.059   0.685  -0.782  -1.474   0.692
    1.917  -0.576  -0.295   0.186  -0.456   0.920  -2.733  -1.293   0.254   2.856   0.323  -0.889   2.491
    0.122  -0.684   1.235  -2.366   0.753  -0.917  -0.177   1.305  -0.241  -0.970   1.369   0.458   0.678
    0.886  -0.712  -0.470   0.651   0.291   1.584   0.366   1.501   1.574  -1.916  -0.675  -2.056   0.063
    0.476  -0.335  -1.108   2.555  -2.447   0.530   0.669   0.572  -0.322  -0.132   0.778   0.502  -0.913
    0.192   0.176   0.475   0.763  -0.335   0.711  -0.209  -0.499   1.174   1.189  -3.494  -0.770   2.121
    1.189  -0.611  -0.342   2.053   0.125  -0.067   2.245   2.386  -0.170   0.140  -0.847   2.356   3.037
    1.200   0.429  -1.640   1.846   0.317   0.999  -2.700  -1.258   1.784   0.202  -1.275   0.322   1.346
    1.225   2.319  -0.169  -0.213   0.227   2.232  -3.340  -1.028   0.743  -0.521  -0.581   0.562  -0.915
   -1.534   1.248  -0.572  -1.753  -1.323  -0.576  -0.891   0.284   0.622  -1.472  -1.223   0.966  -1.453
   -1.159   1.016   1.079   0.603  -0.462   0.725   0.047   1.728   1.800  -0.113  -0.166   0.755  -2.229
   -2.118  -0.386  -0.459  -0.782  -1.459   0.822  -3.210   1.296  -0.397   0.325  -1.313   1.875  -2.151
    1.620   0.276   2.436   0.239  -1.222  -1.318  -1.945  -0.642  -0.680  -1.040   0.958   0.339   0.168

    0.850   0.828
   -1.760  -0.624   1.029  -0.339  -0.246  -0.750  -1.220   0.509  -0.703   0.442  -1.521  -0.873   0.410
    2.607  -0.898   0.149   0.058  -0.011  -0.815  -2.555  -0.747  -0.293   3.137   0.752  -1.032   1.353
    0.247  -0.842   2.128  -1.597   1.118  -1.500   0.649  -0.797  -0.527  -1.924   2.098   0.075   0.045
   -0.053  -0.900  -0.603   1.114  -0.038   1.657   1.313   1.969   2.755  -2.532  -0.553  -1.487   0.109
    0.384  -1.295  -1.110   1.308  -2.472   0.013   0.538   0.323  -0.156  -0.656   0.484   0.518  -1.074
   -0.041   0.922   1.951   0.688  -1.154  -0.078  -0.153  -0.316   1.139  -0.190  -3.609  -0.844   1.476
    0.849  -0.123  -0.085   2.144   0.752  -0.447   0.828   2.607  -0.207   0.433  -0.508   2.162   2.655
    1.082   0.119  -1.780   0.935   0.351   1.302  -2.103  -0.137   2.558   0.152  -1.187   1.431   1.193
    0.412   2.433  -0.662   0.728   0.652   1.589  -2.852  -1.210   0.344  -0.931  -0.439  -0.075   0.151
   -0.789   1.342  -0.026  -1.769  -1.769   0.661  -0.392   0.205  -0.179  -0.976  -1.881   0.385  -1.225
   -0.326   0.594   1.779   0.966  -0.508   0.714   0.201   2.057   1.989   0.860  -0.745   0.183  -3.000
   -0.644  -0.933  -0.577  -0.575  -1.210   0.167  -3.639   2.215  -0.628  -0.496  -0.738   1.247  -2.778
    0.628   0.849   2.712   0.995  -0.501  -2.283  -1.329  -0.186   0.258  -0.760   0.475  -0.133   0.476

    0.900  -0.630
   -2.412  -0.115   1.075  -0.601  -0.321  -1.340  -1.323  -0.507  -1.166   0.691  -1.962  -1.574  -0.530
    2.493  -0.699   0.397  -1.524  -0.398  -0.260  -0.730   0.283   0.760   2.407   0.409  -1.709   0.829
   -0.570  -0.581   2.211  -1.639   1.400  -1.099   0.087  -1.526  -0.305  -1.755   1.443   0.022  -1.109
    0.607  -0.339   0.439   0.228   0.043   1.390   0.828  -0.140   3.554  -2.765   0.443  -0.693  -0.522
   -0.898  -0.925  -0.938   1.605  -2.146  -0.656   0.113   1.066   0.222  -0.339   0.355   0.906  -1.413
    1.300   0.643   2.104   0.323  -0.774   0.461   0.814   0.412   1.432   0.483  -2.306  -1.233   0.937
    0.641   0.277  -0.492   0.528   1.543  -0.286  -0.630   2.456  -0.350   0.855  -1.064   1.252   2.236
    0.645  -0.160  -2.235   1.238   0.060  -0.200  -2.180  -0.215   1.420   0.478  -0.555   0.964   2.102
    0.145   2.460  -1.428   0.299   0.766   1.773  -2.285  -1.287   1.458  -0.259  -0.221  -0.342  -0.638
    0.157   1.255   1.061  -1.998  -1.564   1.430  -0.558   0.044  -0.172  -0.335  -0.507  -0.308  -1.473
    0.320  -0.840   1.961   0.715   0.430   1.423  -0.085   1.888   1.424   1.630  -1.950  -0.048  -2.443
   -0.405  -0.950  -0.539  -1.543  -0.032  -0.474  -3.826   2.439  -1.121   0.347  -0.578   0.858  -2.153
    0.886   1.137   3.126   1.187   0.016  -1.221  -1.195   0.084  -0.145  -1.643   0.185  -1.826   0.244

    0.950  -1.123
   -2.082  -0.063   1.028  -0.854   0.171  -2.423  -1.131  -0.878  -0.838   0.692  -1.392  -1.956  -1.203
    2.871  -1.458   1.013  -1.126  -0.267   0.660  -0.709   0.478   1.366   2.914  -0.027  -1.009   0.226
    0.181  -0.654   1.291  -1.823   1.478  -0.084   0.029  -1.934   0.785  -2.084   1.086  -0.921  -1.610
   -0.064  -0.717  -0.119  -0.466  -0.195   1.118   0.584  -1.444   4.736  -0.648   0.904  -0.017  -0.006
    0.649  -1.488  -1.021   1.945  -1.948  -0.375   1.510   1.644   0.284   0.335  -0.043   1.029  -1.175
    1.977  -0.159   1.225  -0.708  -0.639   0.243   1.494   0.577   1.056   0.386  -2.241  -2.095   0.612
   -0.224   0.921  -0.529   0.032   1.493  -0.778  -1.123   1.322  -0.255   0.672  -0.536   1.661   2.092
    1.166  -0.731  -0.410   1.618   0.594   1.277  -2.572   0.235   0.397   1.377  -0.755   1.640   2.765
    0.557   2.408  -1.763  -0.244   0.057   1.294  -2.578  -1.655   1.588  -0.789  -0.263  -0.181  -0.083
   -1.323  -0.070  -0.099  -2.596  -2.611   1.622   0.066  -0.060  -1.453  -0.337  -0.307  -0.611  -1.390
    0.225   0.225   0.410   1.382   0.605   1.832   0.241   2.467   1.600   1.499  -2.469   0.601  -1.952
   -0.417  -0.856  -0.791  -0.841  -0.941  -0.654  -3.492   2.678  -0.819   0.863   0.618   0.863  -3.589
    0.536   1.891   2.970   0.968   0.394  -1.566  -1.296   0.245  -0.052  -1.511   0.125  -1.748   0.302

    1.000  -1.741
   -1.270   0.168   0.259  -0.209   0.592  -2.755  -1.815   0.258  -0.416  -0.226  -1.436  -2.512  -1.183
    1.734  -1.458   0.996  -0.594  -0.166   0.299  -1.475   0.482   1.527   2.311   1.014   0.014   1.263
    0.166  -0.119   1.295  -0.556   1.534   0.071  -1.268  -2.185   0.581  -2.207   0.606  -1.574  -1.036
   -0.174  -0.885  -0.446   0.263  -0.295   1.410   0.552  -1.002   3.252  -0.401   0.583   0.100  -0.310
    1.538  -1.036  -1.346   2.188  -2.624  -1.472   1.520   0.679  -0.186   0.737   0.236   1.130  -0.971
    1.435   0.261   2.495   0.326   0.615  -0.851   1.607   0.625   1.769  -0.166  -1.331  -1.851   0.138
   -1.641   0.139  -0.373  -0.076   1.629  -1.035  -1.741   0.631  -0.585  -0.330  -1.284   1.349   1.484
    1.152  -1.048  -0.057   2.286   0.779   0.928  -2.991   0.895   0.181   1.154  -0.790   2.009   2.189
    0.416   2.096  -1.946  -0.565   0.072   0.713  -2.628  -1.587   1.746   0.052   0.035   0.683  -0.344
   -2.356  -0.482   0.147  -1.758  -2.271   1.625   1.038  -0.012  -0.081   0.001   0.565   0.863  -1.006
   -0.975   0.448   0.374   0.949  -0.365   3.606   0.388   0.506   1.469   0.970  -2.279   1.419  -2.304