
This full-field turbulence file was generated by TurbSim (v1.07.00a-bjj, 9-Jul-2014) on 09-Jul-2014 at 12:14:08.

 | u-comp |  Y  x  Z  | Grid Resolution (Y x Z) | Time-step | Hub Elev | Mean U |
             5     5      7.500      7.500          0.050      37.00      7.35

 Z Coordinates (m):
  -15.000  -7.500   0.000   7.500  15.000

 Y Coordinates (m):
  -15.000  -7.500   0.000   7.500  15.000

    0.000   9.994
    8.226  10.216   8.618  10.197  11.342
    8.546  10.084   8.661   9.066   9.223
    9.268   9.180   9.994  10.276   9.372
    8.315   7.689   8.976   8.401   8.027
    7.970   7.482   8.117   8.397   8.751

    0.050   9.751
    8.544  10.097   8.627  10.256  11.284
    8.656  10.000   8.562   8.910   9.204
    9.465   8.903   9.751   9.961   9.645
    8.507   7.779   8.951   8.215   8.249
    7.749   7.421   8.205   8.453   8.990

    0.100   9.420
    8.647  10.373   8.957  10.332  10.945
    8.588  10.028   8.692   9.186   8.919
    9.334   9.044   9.420   9.886   9.711
    8.449   7.770   8.812   8.722   8.210
    7.601   7.531   8.144   8.621   8.938

    0.150   9.822
    8.387  10.007   9.465  10.257  10.919
    8.689  10.480   8.870   9.330   8.790
    9.443   9.024   9.822   9.612   9.521
    8.513   7.919   9.146   8.546   8.178
    7.680   7.687   7.812   8.626   8.937

    0.200   9.846
    8.252   9.795   9.431  10.064  10.703
    8.667  10.309   9.106   9.204   8.405
    9.353   8.550   9.846   9.566   9.423
    8.502   7.869   9.792   8.279   7.682
    7.857   8.141   7.796   8.767   9.097

    0.250   9.644
    8.402   9.627   9.386  10.275  10.896
    8.463  10.395   9.008   9.393   8.733
    9.344   8.805   9.644   9.641   9.518
    8.733   7.725   9.723   8.133   7.959
    7.704   7.870   7.626   8.274   9.223

    0.300   9.488
    8.144   9.494   9.210  10.482  11.027
    8.373  10.054   9.231   9.713   9.024
    9.340   8.413   9.488   9.692   9.615
    8.972   7.964   9.779   8.206   8.190
    7.806   7.616   7.131   8.568   9.246

    0.350   9.393
    8.348   9.639   9.041  10.769  10.561
    8.063   9.954   9.739   9.922   8.969
    9.158   8.543   9.393   9.781   9.563
    8.867   7.798   9.494   8.572   8.263
    7.631   7.724   6.999   8.576   8.980

    0.400   9.516
    8.406   9.734   9.232  10.699  10.592
    8.066   9.982   9.811   9.708   9.022
    9.275   8.626   9.516   9.555   9.512
    8.634   7.616   9.449   8.847   8.353
    7.881   7.710   7.148   8.931   9.008

    0.450   9.407
    8.340   9.917   9.370  10.706  10.530
    7.867   9.946   9.973   9.835   9.300
    9.452   8.411   9.407   9.404   9.322
    8.760   7.633   9.517   8.653   8.257
    7.505   7.848   7.304   9.155   9.349

    0.500   9.307
    8.429   9.912   8.782  10.395  10.579
    7.854  10.096   9.980   9.819   8.892
    9.182   8.457   9.307   9.452   8.960
    8.989   7.804   9.426   8.631   8.410
    7.415   7.788   7.368   9.221   9.271

    0.550   9.286
    8.192   9.858   8.765  10.408  10.398
    7.955   9.956   9.549   9.851   8.936
    9.825   8.434   9.286   9.022   8.863
    8.832   7.839   9.406   8.685   8.298
    7.663   7.530   7.089   9.223   9.414

    0.600   8.740
    8.545   9.804   9.124  10.461  10.390
    8.289   9.790   9.096   9.541   9.174
    9.454   8.372   8.740   8.983   9.061
    8.926   7.959   9.245   8.770   8.786
    7.561   7.753   7.156   8.849   9.473

    0.650   8.665
    8.779   9.422   9.634  10.593  10.422
    8.019  10.039   9.024   9.684   9.122
    9.767   8.422   8.665   8.902   8.863
    9.011   7.932   8.822   8.769   8.777
    7.370   7.408   7.281   8.752   9.327

    0.700   8.801
    8.709   9.411   9.986  10.590  10.464
    7.986  10.064   8.941   9.916   8.828
    9.561   8.540   8.801   8.392   8.997
    9.306   8.025   9.054   8.965   8.607
    7.380   7.378   7.402   9.002   9.191

    0.750   8.927
    8.758   9.476   9.974  10.624  10.590
    8.592   9.801   8.905   9.918   9.159
    9.071   8.344   8.927   8.507   9.388
    9.091   7.761   8.869   9.220   8.533
    7.320   7.212   7.650   8.942   9.639

    0.800   8.890
    8.902   9.834  10.301  10.958  10.834
    8.494  10.070   8.806   9.634   8.710
    8.725   8.376   8.890   8.636   9.397
    8.908   7.660   8.941   9.282   8.388
    7.147   7.253   7.617   8.943   9.717

    0.850   8.873
    8.713   9.748  10.419  10.679  10.800
    8.484  10.222   8.810   9.553   8.983
    9.069   8.695   8.873   8.457   9.510
    8.814   7.862   9.012   9.085   8.352
    7.555   7.107   7.583   8.905   9.460

    0.900   9.071
    8.613   9.884  10.432  10.433  10.753
    8.711  10.633   8.763   9.666   8.884
    9.112   8.938   9.071   8.353   9.680
    8.883   7.588   8.968   8.680   8.542
    7.334   7.495   7.426   8.911   9.366

    0.950   8.939
    8.647   9.985  10.212  10.551  10.926
    8.860  10.695   8.882   9.773   8.852
    9.255   9.041   8.939   7.862   9.813
    9.183   7.469   9.148   8.642   8.611
    7.084   7.679   7.409   8.855   8.989

    1.000   8.839
    8.733   9.796  10.318  10.429  10.748
    8.905  10.516   9.082   9.349   8.925
    9.352   8.762   8.839   7.686   9.637
    9.017   7.300   9.079   8.533   8.484
    7.028   7.713   7.666   9.179   8.701

    1.050   8.721
    9.220   9.808  10.253  10.631  10.581
    8.706  10.199   9.277   9.557   8.545
    9.250   8.886   8.721   7.953   9.510
    9.014   6.926   8.924   8.526   9.111
    6.880   7.164   7.769   9.348   8.517

    1.100   8.795
    9.518   9.537  10.163  10.836  10.632
    8.930  10.296   8.863   9.713   8.985
    8.882   9.107   8.795   8.005   9.342
    8.961   6.926   8.939   8.440   9.222
    6.911   7.108   7.111   9.096   8.856

    1.150   8.771
    9.196   9.480  10.155  10.818  10.288
    8.840  10.054   9.241  10.001   9.056
    8.579   9.310   8.771   8.477   9.628
    9.049   6.912   8.768   8.682   9.084
    7.247   7.207   7.359   8.878   8.581

    1.200   8.566
    8.968   9.548  10.055  11.172  10.030
    9.264  10.033   9.407  10.039   8.725
    8.569   9.108   8.566   8.404  10.175
    9.046   7.016   8.799   8.774   9.207
    7.148   7.303   7.167   8.885   8.412

    1.250   8.707
    8.867   9.933   9.900  11.165  10.225
    9.378  10.062   9.156  10.036   9.174
    8.634   9.240   8.707   8.508  10.021
    9.053   7.014   8.942   8.772   9.524
    7.507   7.074   7.628   8.597   8.216

    1.300   8.623
    8.707  10.204   9.977  10.954  10.090
    9.116  10.005   9.226  10.125   9.744
    8.615   9.293   8.623   8.503  10.197
    9.098   7.166   8.979   8.260   9.400
    7.460   7.237   7.767   8.944   8.241

    1.350   8.691
    8.480  10.507   9.977  10.851   9.806
    8.705   9.841   9.447   9.887   9.462
    8.588   9.477   8.691   8.250   9.797
    9.122   7.211   9.020   8.275   9.654
    7.679   7.606   7.627   8.760   8.437

    1.400   8.594
    8.998  10.296  10.072  10.761   9.892
    8.488   9.515   9.659   9.960   9.499
    8.883   9.429   8.594   8.090  10.010
    9.198   7.313   9.188   8.413  10.186
    7.843   7.664   7.550   8.459   8.358

    1.450   8.840
    9.296  10.085   9.539  10.883  10.023
    8.431   9.521   9.785   9.665   9.440
    8.946   9.638   8.840   8.001   9.819
    9.203   7.537   9.132   8.130  10.120
    7.460   7.427   7.316   8.588   8.392

    1.500   8.635
    9.336  10.146   9.435  11.227  10.358
    8.235   9.703   9.764   9.541   9.359
    9.222   9.714   8.635   8.027   9.590
    9.358   7.782   9.296   7.866  10.132
    7.494   7.157   6.989   8.727   8.869

    1.550   8.305
    9.454  10.126   9.443  11.262  10.313
    8.384   9.735  10.013   9.477   9.161
    9.393  10.009   8.305   8.489  10.260
    9.347   7.614   9.594   7.965  10.098
    7.389   6.926   7.359   8.662   8.932

    1.600   8.231
    9.489  10.161   9.690  11.440  10.200
    8.626   9.601   9.787   9.543   9.295
    9.216   9.811   8.231   8.774  10.066
    9.570   7.794   9.228   7.972   9.980
    7.582   7.240   7.514   8.759   8.639

    1.650   8.157
    9.661  10.205   9.506  11.399  10.112
    8.841   9.633   9.839   9.739   9.021
    8.858   9.697   8.157   8.766  10.205
    9.718   7.565   8.710   8.301  10.055
    7.676   7.393   7.587   8.788   8.689

    1.700   8.047
    9.751   9.998   9.589  11.644  10.358
    9.001   9.708   9.890   9.641   9.135
    8.918   9.782   8.047   8.782  10.295
    9.876   7.560   8.700   8.308   9.702
    7.524   6.947   7.509   8.927   8.781

    1.750   7.992
    9.614   9.762   9.704  11.411  10.479
    8.906   9.839   9.816   9.683   9.263
    8.988   9.916   7.992   8.926  10.368
   10.080   7.704   8.986   8.611   9.780
    7.600   7.281   7.517   8.825   8.868

    1.800   8.179
    9.801  10.026   9.571  11.351  10.496
    9.367   9.670   9.787   9.768   9.578
    8.863   9.870   8.179   8.624  10.451
   10.174   7.657   9.012   8.721   9.821
    7.793   7.423   7.335   8.479   9.375

    1.850   8.465
    9.706   9.482   9.364  11.178  10.271
    9.262   9.522   9.895   9.748   9.535
    9.138   9.840   8.465   8.822  10.343
    9.962   7.492   8.956   9.051   9.445
    8.066   7.522   7.271   8.089   9.277

    1.900   8.469
    9.237   9.497   9.384  10.772   9.919
    9.293   9.355   9.828   9.621   9.808
    9.269   9.435   8.469   8.852  10.496
    9.725   7.401   9.172   8.816   9.277
    8.195   7.436   7.496   7.850   9.425

    1.950   8.554
    9.426   9.623   9.633  10.909  10.061
    9.247   9.638   9.724   9.799   9.439
    9.459   9.385   8.554   9.013  10.233
    9.664   7.266   9.293   9.043   9.096
    8.162   7.442   7.372   7.786   9.737

    2.000   8.621
    9.370   9.409   9.840  11.147   9.934
    9.594   9.496   9.892   9.780   9.257
    9.444   9.203   8.621   9.008  10.195
    9.434   7.449   9.014   9.139   9.015
    7.918   7.874   7.038   7.426   9.173

    2.050   8.100
    9.256   9.432  10.040  11.082  10.192
    9.883   9.485  10.078   9.725   9.046
    9.142   9.103   8.100   8.944  10.352
    9.083   7.597   9.178   9.295   9.235
    7.607   7.748   7.028   7.320   8.829

    2.100   8.037
    9.377   9.527   9.984  11.113   9.878
   10.034   9.489  10.104   9.579   9.098
    9.215   9.207   8.037   9.012  10.089
    9.336   7.571   9.330   9.224   9.507
    7.521   8.347   7.350   7.060   8.446

    2.150   8.117
    9.552   9.292  10.077  10.979   9.860
    9.953   9.663   9.984   9.760   9.050
    9.442   9.405   8.117   8.844  10.435
    9.406   7.492   9.219   8.748   9.789
    7.316   8.071   7.183   6.931   8.214

    2.200   7.876
    9.342   8.992  10.285  11.026   9.995
    9.861  10.014   9.734   9.705   8.968
    9.113   9.226   7.876   9.040  10.631
    9.776   7.126   9.514   8.856   9.798
    7.067   8.169   7.257   6.580   7.858

    2.250   7.949
    9.144   9.208   9.848  11.156  10.208
    9.709   9.829   9.622   9.430   8.905
    8.732   9.287   7.949   8.965  10.228
   10.207   6.937   9.425   8.535   9.764
    7.124   8.146   7.229   6.286   7.705

    2.300   7.953
    9.362   9.160   9.721  11.331  10.159
    9.790   9.821   9.364   9.534   8.969
    8.579   9.181   7.953   9.146  10.269
   10.026   6.899   9.365   8.568   9.561
    7.503   8.065   7.186   6.514   7.909

    2.350   7.992
    9.394   9.076   9.828  11.003  10.422
    9.596   9.735   9.080   9.272   8.676
    8.290   9.244   7.992   8.859  10.345
    9.758   6.914   9.011   8.801   9.474
    7.382   7.919   6.929   6.701   7.822

    2.400   7.870
    9.410   8.944   9.643  11.147  10.273
    9.760   9.347   9.038   9.455   8.713
    8.437   9.498   7.870   8.902  10.245
    9.637   7.063   9.069   8.507   9.799
    7.298   7.976   7.026   6.859   8.305

    2.450   7.648
    9.097   9.205   9.752  11.025  10.303
    9.532   9.545   9.181   9.454   8.874
    8.186   9.203   7.648   8.950  10.209
    9.379   7.078   8.906   8.569   9.188
    7.473   8.032   7.294   6.705   8.412

    2.500   7.476
    8.642   8.968   9.486  10.816  10.138
    9.369   9.629   9.202   9.551   8.620
    8.208   8.630   7.476   8.903  10.027
    9.287   7.334   9.058   8.179   9.358
    7.416   7.834   7.086   6.818   8.394

    2.550   7.550
    8.586   9.056   9.392  10.498  10.029
    9.412   9.262   9.298   9.241   8.616
    8.236   8.967   7.550   8.794   9.996
    9.396   7.276   9.037   8.341   9.404
    7.501   7.758   7.059   6.533   8.202

    2.600   7.600
    8.773   9.011   9.404  10.312   9.990
    9.143   9.208   9.019   9.012   9.191
    8.158   9.065   7.600   8.913   9.988
    9.365   7.136   8.954   8.731   9.576
    7.642   7.999   7.027   6.692   8.116

    2.650   7.927
    8.499   8.930   9.366   9.874   9.666
    9.092   8.961   9.017   9.139   9.212
    8.135   8.736   7.927   8.819   9.774
    9.348   6.954   9.157   8.548   9.367
    7.559   8.127   7.184   6.607   8.372

    2.700   7.858
    8.777   9.032   9.254  10.180   9.239
    9.108   8.790   9.082   9.696   9.196
    8.172   8.666   7.858   9.046   9.917
    9.474   6.998   9.270   8.397   9.047
    7.581   8.265   7.334   6.619   8.197

    2.750   7.884
    8.869   9.577   9.094  10.061   9.449
    8.836   8.619   9.595   9.827   9.120
    8.418   8.728   7.884   9.130  10.126
    9.648   7.301   9.062   8.782   8.575
    6.987   8.322   7.464   6.672   8.425

    2.800   8.115
    8.956   9.565   9.002   9.971   9.511
    8.671   8.923   9.621   9.847   9.154
    8.466   8.725   8.115   8.914  10.111
    9.629   6.941   8.746   8.672   8.653
    6.715   8.350   7.552   6.748   8.008

    2.850   8.000
    9.256   9.292   8.691   9.908   9.497
    9.392   8.896   9.647   9.957   9.096
    8.380   8.363   8.000   8.969  10.104
    9.878   6.976   8.718   8.943   8.724
    6.837   8.561   7.410   6.602   8.145

    2.900   8.044
    9.002   9.083   8.609   9.913   9.508
    9.651   9.043   9.703  10.143   8.966
    8.607   8.402   8.044   8.891   9.796
    9.835   7.190   8.542   8.801   8.606
    6.767   8.648   7.641   6.411   8.374

    2.950   8.119
    8.762   8.990   8.741   9.984   8.888
    9.754   9.004   9.478  10.018   8.916
    8.426   8.721   8.119   8.730  10.002
    9.829   7.320   8.588   8.405   9.021
    6.718   8.793   7.632   6.344   8.099

    3.000   7.991
    8.895   8.773   8.516   9.979   8.997
    9.779   9.055   9.403   9.629   8.886
    8.501   8.509   7.991   8.544   9.661
    9.496   7.065   8.740   8.084   9.094
    6.620   8.803   7.829   6.457   7.981

    3.050   7.935
    8.899   8.315   8.529   9.845   8.956
    9.742   9.164   9.211   9.621   8.623
    8.519   8.227   7.935   8.712   9.245
    9.075   6.856   8.698   8.041   9.108
    6.435   8.499   7.925   6.756   7.970

    3.100   7.931
    8.671   8.099   8.336   9.981   8.912
    9.628   8.777   9.218   9.530   8.554
    8.327   7.864   7.931   8.784   9.062
    9.109   6.944   8.578   8.281   9.060
    6.507   8.430   7.761   6.761   7.726

    3.150   7.668
    8.616   8.312   8.115  10.198   8.872
    9.470   8.710   9.007   9.438   9.007
    8.328   7.953   7.668   8.751   9.271
    9.362   6.947   8.691   8.403   9.208
    6.499   8.429   7.997   6.888   7.651

    3.200   7.291
    8.396   8.925   8.324   9.927   9.029
    9.148   8.807   8.993   9.827   8.816
    8.346   7.742   7.291   8.868   8.945
    9.082   6.995   8.763   8.213   8.905
    6.502   8.240   8.451   6.489   7.792

    3.250   7.670
    8.430   9.009   8.194  10.231   9.250
    9.040   8.506   9.040   9.477   8.906
    8.468   7.803   7.670   9.050   8.984
    9.060   6.687   8.284   8.475   8.781
    6.294   7.877   8.407   6.607   7.999

    3.300   8.224
    8.451   9.109   8.078  10.002   9.305
    9.351   8.428   9.242   9.699   8.770
    8.209   7.614   8.224   8.949   9.155
    9.076   6.556   8.197   8.761   9.080
    6.322   7.939   8.223   6.724   7.981

    3.350   8.214
    8.497   8.783   8.367  10.014   9.487
    9.306   8.263   9.052   9.846   8.632
    8.454   7.569   8.214   9.012   9.381
    9.044   6.560   8.233   8.954   9.276
    6.251   8.321   8.203   6.698   7.657

    3.400   8.091
    8.574   8.535   8.454  10.222   9.250
    9.226   8.354   8.849   9.292   8.639
    8.301   7.896   8.091   8.868   9.302
    9.083   6.617   8.514   8.907   9.489
    5.944   8.709   7.851   6.708   7.327

    3.450   8.277
    8.418   8.870   8.250   9.968   9.168
    9.086   8.257   8.689   8.982   8.684
    8.249   8.047   8.277   8.948   9.000
    8.760   6.973   8.256   8.833   9.423
    5.708   8.832   7.956   6.236   7.173

    3.500   8.414
    8.536   9.043   8.483   9.659   8.987
    8.869   7.915   9.059   8.861   9.070
    8.137   8.008   8.414   8.876   9.037
    8.714   7.129   8.314   8.494   9.486
    5.522   8.909   7.788   6.450   7.000

    3.550   8.126
    8.415   8.727   8.971   9.447   9.101
    8.829   7.891   8.802   8.896   9.035
    8.221   8.283   8.126   8.812   9.049
    8.854   7.034   8.240   8.752   9.356
    5.472   8.614   7.672   6.341   6.885

    3.600   8.689
    8.214   8.784   9.001   9.240   9.107
    8.903   8.404   8.952   8.865   8.838
    8.166   8.049   8.689   8.679   9.300
    8.598   6.971   8.430   8.989   9.443
    5.627   8.614   7.627   6.491   6.852

    3.650   8.031
    8.239   8.539   9.310   9.050   9.467
    9.018   8.328   9.108   8.721   8.936
    8.154   7.994   8.031   8.356   9.218
    8.371   6.925   8.323   8.764   9.386
    5.613   8.787   7.561   6.205   7.167

    3.700   7.878
    7.877   8.379   9.021   9.184   9.332
    8.881   8.000   9.040   8.877   8.832
    8.095   7.842   7.878   8.206   9.321
    8.295   6.932   8.366   8.716   9.323
    5.692   8.739   7.754   6.247   7.225

    3.750   8.085
    8.073   8.156   8.539   9.255   9.351
    8.950   7.685   9.555   8.431   8.938
    8.306   7.479   8.085   7.977   9.505
    8.333   6.938   8.212   8.650   9.313
    5.725   8.875   7.527   6.458   7.328

    3.800   8.293
    8.282   8.494   8.636   9.210   9.173
    8.765   7.372   9.935   8.207   9.226
    8.520   7.376   8.293   7.936   9.574
    8.226   6.967   8.181   8.627   9.232
    6.001   8.623   7.405   6.559   7.429

    3.850   8.262
    8.270   8.652   8.653   9.491   9.245
    8.856   7.460   9.811   8.462   8.956
    8.670   7.302   8.262   8.108   9.247
    8.070   6.656   8.282   8.589   9.238
    6.257   8.120   7.259   6.797   7.386

    3.900   8.150
    8.556   8.569   8.474   9.737   9.261
    8.793   7.498   9.403   8.268   9.017
    8.555   7.639   8.150   8.175   9.337
    7.772   7.012   8.172   8.545   9.400
    6.551   8.204   7.369   6.934   7.476

    3.950   8.209
    8.868   8.587   8.419   9.206   9.436
    8.653   7.544   9.170   8.232   8.787
    8.636   7.426   8.209   8.043   9.643
    7.338   7.004   7.881   8.290   9.459
    6.502   7.830   7.355   6.826   7.617

    4.000   8.269
    9.101   8.517   8.472   9.253   9.762
    8.840   7.433   9.136   8.396   8.765
    8.843   7.317   8.269   8.537   9.328
    7.581   7.281   7.409   8.161   9.704
    6.297   7.973   7.067   7.166   7.833

    4.050   8.165
    9.242   8.410   8.812   9.567   9.482
    8.637   7.398   9.412   8.547   8.855
    8.857   7.326   8.165   8.696   9.543
    7.646   7.145   7.674   8.227   9.748
    5.912   7.944   7.094   7.153   7.455

    4.100   8.375
    9.454   8.434   8.738   9.808   9.846
    8.766   6.975   9.253   8.774   8.748
    9.072   7.648   8.375   8.604   8.916
    7.475   7.053   7.860   8.191   9.730
    5.876   8.272   7.438   6.891   7.445

    4.150   8.323
    9.263   8.183   8.348   9.594   9.485
    8.726   6.804   9.058   8.577   8.792
    9.206   7.800   8.323   8.769   8.989
    7.938   7.589   7.929   8.242   9.737
    6.019   7.838   7.269   7.019   7.015

    4.200   8.304
    9.445   8.259   7.702   9.491   9.221
    8.694   6.974   9.125   8.364   8.786
    9.248   7.304   8.304   8.650   9.098
    7.555   7.860   8.213   8.209   9.299
    5.820   8.077   7.515   6.844   6.885

    4.250   8.001
    9.482   8.235   7.815   9.547   9.527
    9.305   6.976   9.114   8.755   8.938
    9.446   7.354   8.001   8.408   8.907
    7.516   7.818   8.013   8.290   9.198
    5.968   8.196   7.511   6.923   6.896

    4.300   7.861
    9.502   8.324   8.084   9.787   9.636
    8.964   7.243   8.993   8.976   8.878
    9.207   7.659   7.861   8.721   8.656
    7.776   7.930   7.831   8.025   9.051
    6.479   7.961   7.506   6.695   6.820

    4.350   7.915
    9.680   8.250   7.754   9.840   9.793
    8.952   7.156   8.705   8.757   9.138
    9.016   7.633   7.915   8.451   8.308
    7.562   7.818   7.909   8.291   8.610
    6.704   7.969   7.622   6.540   6.508

    4.400   7.912
    9.732   7.885   7.781   9.557   9.872
    9.036   7.001   8.589   8.711   9.279
    8.936   7.645   7.912   8.624   8.339
    7.377   7.494   7.982   8.050   8.692
    6.665   8.106   7.731   6.408   6.879

    4.450   7.626
    9.475   8.028   7.495  10.037   9.917
    8.419   6.968   8.608   8.670   9.664
    8.979   7.947   7.626   9.036   8.379
    7.553   7.479   8.197   8.212   8.450
    6.783   7.810   7.914   6.972   7.184

    4.500   7.303
    9.396   7.999   7.286  10.014   9.784
    8.386   7.410   8.873   8.980   9.436
    8.933   7.888   7.303   8.880   8.464
    7.643   7.533   8.129   8.105   8.617
    6.906   7.900   7.781   6.593   7.379

    4.550   7.483
    9.133   8.055   7.388   9.938   9.777
    8.453   7.247   8.986   8.835   9.461
    8.643   7.708   7.483   9.086   8.648
    7.416   7.447   7.943   8.136   8.583
    7.155   7.894   7.813   6.357   7.617

    4.600   7.740
    8.898   8.046   7.392  10.284   9.682
    8.591   7.491   8.784   8.659   9.711
    8.458   7.757   7.740   9.449   9.004
    7.262   7.753   7.729   8.112   8.556
    7.112   7.515   7.594   6.613   7.825

    4.650   7.653
    8.852   8.055   7.158  10.031   9.464
    8.361   7.273   8.670   8.550   9.424
    8.435   8.071   7.653   9.427   9.253
    7.122   7.548   7.874   7.967   8.552
    7.247   7.423   7.924   6.490   7.859

    4.700   7.616
    8.765   7.644   7.602   9.906   9.482
    8.423   7.468   7.992   8.350   9.371
    8.284   7.847   7.616   9.616   9.410
    7.300   7.135   7.780   8.481   8.612
    7.508   7.494   8.322   6.382   7.839

    4.750   7.669
    8.845   7.782   7.944  10.049   9.601
    8.471   7.405   7.726   8.589   9.511
    8.138   7.676   7.669   9.688   9.452
    7.000   7.335   8.041   8.678   8.248
    7.749   7.493   8.181   6.268   7.636

    4.800   7.791
    8.821   8.175   7.898  10.243   9.997
    8.592   7.688   7.940   8.569   8.891
    8.017   7.909   7.791   9.835   9.044
    7.070   7.271   7.773   8.451   8.243
    8.079   7.405   8.269   6.428   7.882

    4.850   7.752
    8.643   8.080   8.133   9.915   9.664
    8.365   7.530   8.163   8.350   9.038
    8.036   7.704   7.752   9.660   9.382
    7.133   7.124   7.905   8.247   8.687
    8.188   7.388   8.487   6.689   8.214

    4.900   8.067
    8.428   8.016   8.055   9.915   9.594
    8.470   7.216   8.611   8.230   9.007
    7.691   7.824   8.067   9.748   9.425
    7.352   7.436   7.679   8.407   8.789
    8.060   7.380   8.273   6.497   7.988

    4.950   7.948
    8.389   7.613   8.147   9.783   9.451
    8.408   7.391   8.250   8.492   8.946
    7.883   7.927   7.948   9.493   9.149
    7.575   7.191   7.954   8.482   8.999
    8.063   7.153   8.087   7.018   8.009

    5.000   7.960
    8.206   7.644   8.079   9.943   9.463
    8.423   7.341   8.299   8.416   8.823
    7.713   8.170   7.960   9.631   9.230
    7.498   7.189   7.842   8.597   9.065
    7.851   6.958   7.809   6.681   8.119

    5.050   8.136
    8.574   7.633   8.128   9.971   9.398
    8.400   7.447   8.148   8.595   8.612
    7.485   8.339   8.136   9.620   9.181
    7.781   7.043   7.675   8.945   9.254
    7.710   6.937   7.378   6.573   8.565

    5.100   8.275
    8.505   7.430   8.283   9.808   9.207
    8.161   7.617   8.217   8.828   8.348
    7.763   7.949   8.275   9.852   9.085
    7.887   7.105   7.513   8.947   9.236
    7.730   6.824   7.474   6.490   8.761

    5.150   8.541
    8.633   7.527   8.547   9.818   8.996
    7.929   7.673   8.308   9.028   8.254
    8.077   7.828   8.541  10.183   8.776
    7.784   7.206   7.296   8.964   9.325
    7.746   6.717   7.457   6.796   8.559

    5.200   8.469
    8.646   7.449   8.911   9.662   9.252
    7.682   7.616   8.048   9.104   8.413
    7.796   7.644   8.469   9.838   8.624
    7.509   7.079   7.240   8.834   9.506
    7.892   7.006   7.526   6.924   8.558

    5.250   8.558
    9.005   7.714   9.077   9.947   9.205
    7.385   7.442   8.282   9.279   8.576
    7.661   7.368   8.558   9.518   9.426
    7.253   6.938   7.614   9.127   9.154
    8.126   7.235   7.898   7.214   8.599

    5.300   8.454
    8.911   7.903   9.083   9.779   9.318
    7.040   7.384   8.511   9.162   8.655
    7.545   7.163   8.454   9.471   9.516
    7.570   7.093   7.659   9.089   9.279
    8.397   7.471   8.277   7.065   8.128

    5.350   8.374
    8.996   7.831   9.069   9.181   9.386
    6.901   7.648   8.520   9.198   8.736
    7.443   7.154   8.374   9.220   9.249
    7.686   7.335   7.767   9.050   9.274
    8.153   7.720   8.031   7.154   8.336

    5.400   8.242
    8.786   7.546   9.133   9.386   9.545
    7.264   7.598   8.622   9.324   8.821
    7.424   7.415   8.242   8.854   8.904
    7.570   7.443   7.810   8.705   8.924
    8.069   7.670   8.280   7.340   8.706

    5.450   8.151
    8.761   7.739   9.145   9.800   9.294
    7.032   7.537   8.749   9.279   8.472
    7.469   7.572   8.151   9.005   9.133
    7.902   7.426   7.698   8.560   9.045
    7.541   7.828   8.256   7.639   8.449

    5.500   8.132
    8.843   7.705   9.266   9.698   9.292
    7.117   7.672   8.730   9.141   8.361
    7.508   7.541   8.132   8.990   9.259
    7.276   7.638   7.748   8.445   9.397
    7.565   7.795   7.948   7.700   8.127

    5.550   7.946
    8.437   7.780   9.131   9.335   9.565
    7.041   7.711   8.578   9.704   8.444
    7.523   7.014   7.946   9.078   9.418
    7.108   7.831   7.803   8.110   9.492
    7.608   7.987   8.218   7.477   8.007

    5.600   7.996
    8.752   7.670   8.909   9.354   9.500
    6.940   8.127   8.803   9.597   8.278
    7.686   6.993   7.996   9.190   9.458
    7.058   7.521   7.939   7.975   9.544
    7.890   8.198   8.245   7.579   7.847

    5.650   7.961
    8.491   7.768   8.536   9.263   9.733
    6.977   8.452   8.809   9.562   8.382
    7.657   7.163   7.961   9.010   9.821
    7.103   7.701   8.172   7.486   9.522
    7.552   8.179   8.284   7.701   7.584

    5.700   7.890
    8.338   7.907   8.461   9.105   9.921
    7.060   8.691   8.602   9.449   8.496
    7.521   7.593   7.890   9.135   9.728
    7.200   7.403   8.035   7.248   9.393
    7.472   8.195   8.655   8.055   7.469

    5.750   8.080
    8.468   8.063   8.401   9.268   9.872
    6.892   8.869   8.677   9.773   8.597
    7.079   7.388   8.080   8.937   9.395
    7.043   7.396   8.123   7.202   9.318
    7.310   8.335   8.383   8.292   8.065

    5.800   8.477
    8.323   7.838   8.812   9.465   9.924
    6.699   8.838   8.898   9.763   8.686
    6.916   7.209   8.477   9.128   9.580
    7.042   7.656   8.061   7.320   9.368
    7.424   8.330   8.454   8.567   8.166

    5.850   8.298
    8.014   7.878   9.117   9.340   9.908
    7.187   8.979   8.870   9.556   8.736
    6.883   7.309   8.298   8.877   9.689
    7.234   7.548   8.033   7.411   9.031
    7.113   8.146   8.199   8.751   8.314

    5.900   8.288
    7.885   7.915   8.931   9.311  10.066
    7.127   8.953   9.095   9.462   8.402
    7.017   7.140   8.288   8.989   9.568
    7.291   7.435   7.737   7.734   8.776
    7.165   8.129   8.415   9.018   8.187

    5.950   8.323
    8.094   7.831   8.703   9.726  10.226
    7.083   8.745   8.833   9.653   8.576
    7.141   7.257   8.323   8.680   9.823
    7.532   7.582   7.404   7.844   8.975
    7.425   7.579   8.189   9.104   8.116

    6.000   8.205
    7.892   7.910   8.753   9.635  10.310
    7.030   8.605   8.736   9.928   8.681
    7.005   7.376   8.205   8.863  10.017
    7.339   7.555   7.419   7.819   8.819
    7.308   7.263   8.094   8.782   7.844

    6.050   8.498
    8.002   7.449   9.072   9.987   9.802
    7.111   8.381   9.292   9.815   8.768
    7.411   7.428   8.498   8.643  10.104
    7.356   7.442   7.471   7.858   8.794
    6.985   7.135   8.194   8.776   7.871

    6.100   8.398
    8.216   7.366   8.981   9.816   9.873
    7.377   8.335   9.159  10.093   8.711
    7.243   7.227   8.398   8.635  10.160
    7.242   7.225   7.830   8.016   8.861
    7.187   6.639   7.726   8.918   8.088

    6.150   8.392
    8.406   7.018   8.737   9.918   9.754
    7.314   8.270   9.291  10.530   8.893
    7.631   7.109   8.392   8.677  10.072
    7.447   7.348   7.483   7.711   8.584
    6.835   6.989   7.679   9.028   8.120

    6.200   8.243
    8.778   6.996   9.107  10.074   9.763
    7.135   8.262   9.062  10.464   8.817
    7.434   6.920   8.243   8.546   9.618
    7.541   7.563   7.264   7.736   8.801
    6.646   7.910   7.716   8.889   8.590

    6.250   8.131
    8.496   6.748   8.619  10.273   9.851