
This full-field turbulence file was generated by TurbSim (v1.06.00, 21-Sep-2012) on 25-Sep-2012 at 13:53:51.

 | u-comp |  Y  x  Z  | Grid Resolution (Y x Z) | Time-step | Hub Elev | Mean U |
             5     5      7.500      7.500          0.050      37.00     18.38

 Z Coordinates (m):
  -15.000  -7.500   0.000   7.500  15.000

 Y Coordinates (m):
  -15.000  -7.500   0.000   7.500  15.000

    0.000  25.496
   22.250  27.685  22.234  24.957  28.171
   22.889  25.872  22.595  23.257  23.543
   23.352  23.694  25.496  26.629  23.809
   20.857  19.411  21.850  21.863  21.117
   20.367  19.237  20.912  21.181  22.443

    0.050  24.599
   23.347  27.180  22.208  25.135  27.944
   23.257  25.492  22.130  22.601  23.441
   24.059  22.673  24.599  25.509  24.721
   21.473  19.735  21.719  21.151  21.896
   19.588  18.975  21.215  21.297  23.290

    0.100  23.393
   23.662  28.107  23.341  25.383  26.718
   22.985  25.516  22.491  23.496  22.384
   23.595  23.159  23.393  25.259  24.890
   21.182  19.700  21.180  22.942  21.737
   19.072  19.327  20.983  21.817  23.092

    0.150  24.832
   22.668  26.726  25.119  25.098  26.631
   23.316  27.058  23.023  23.914  21.898
   23.998  23.065  24.832  24.304  24.138
   21.329  20.236  22.339  22.279  21.601
   19.367  19.839  19.777  21.746  23.071

    0.200  24.914
   22.119  25.905  24.947  24.398  25.871
   23.204  26.355  23.764  23.357  20.490
   23.682  21.338  24.914  24.173  23.724
   21.213  20.054  24.623  21.285  19.796
   20.016  21.422  19.713  22.160  23.629

    0.250  24.183
   22.589  25.252  24.735  25.161  26.597
   22.434  26.582  23.304  23.943  21.649
   23.657  22.238  24.183  24.482  24.007
   21.969  19.538  24.331  20.725  20.771
   19.472  20.397  19.088  20.295  24.066

    0.300  23.623
   21.591  24.726  24.060  25.921  27.113
   22.073  25.276  24.002  24.996  22.676
   23.651  20.803  23.623  24.709  24.300
   22.746  20.397  24.495  20.956  21.581
   19.852  19.441  17.290  21.274  24.138

    0.350  23.287
   22.258  25.208  23.413  26.973  25.486
   20.917  24.847  25.729  25.650  22.459
   23.004  21.250  23.287  25.076  24.057
   22.291  19.795  23.436  22.243  21.820
   19.233  19.793  16.795  21.222  23.167

    0.400  23.747
   22.405  25.519  24.065  26.746  25.663
   20.885  24.888  25.893  24.780  22.629
   23.439  21.519  23.747  24.316  23.820
   21.376  19.128  23.249  23.199  22.118
   20.149  19.702  17.306  22.427  23.257

    0.450  23.377
   22.106  26.158  24.520  26.807  25.505
   20.124  24.697  26.390  25.140  23.609
   24.087  20.712  23.377  23.827  23.078
   21.749  19.171  23.473  22.469  21.740
   18.810  20.163  17.842  23.161  24.473

    0.500  23.045
   22.370  26.126  22.364  25.727  25.757
   20.035  25.182  26.344  24.992  22.123
   23.117  20.839  23.045  24.063  21.716
   22.489  19.766  23.129  22.353  22.245
   18.498  19.915  18.044  23.344  24.177

    0.550  23.008
   21.467  25.929  22.260  25.815  25.180
   20.350  24.641  24.729  25.019  22.271
   25.438  20.713  23.008  22.570  21.307
   21.839  19.875  23.046  22.513  21.789
   19.405  18.956  17.004  23.306  24.679

    0.600  21.084
   22.697  25.737  23.511  26.052  25.226
   21.502  24.023  23.048  23.813  23.122
   24.105  20.438  21.084  22.490  21.957
   22.090  20.281  22.457  22.786  23.484
   19.048  19.733  17.210  21.926  24.885

    0.650  20.864
   23.504  24.378  25.308  26.579  25.419
   20.475  24.915  22.744  24.241  22.934
   25.236  20.561  20.864  22.261  21.178
   22.310  20.162  20.925  22.749  23.383
   18.371  18.464  17.626  21.552  24.354

    0.700  21.407
   23.219  24.365  26.544  26.616  25.652
   20.302  25.011  22.415  24.992  21.877
   24.502  20.929  21.407  20.484  21.600
   23.296  20.478  21.749  23.422  22.688
   18.415  18.326  18.033  22.436  23.860

    0.750  21.925
   23.370  24.631  26.476  26.781  26.192
   22.430  24.081  22.260  24.919  23.080
   22.748  20.158  21.925  20.953  22.939
   22.446  19.510  21.073  24.314  22.332
   18.205  17.701  18.892  22.209  25.473

    0.800  21.862
   23.866  25.956  27.641  28.029  27.162
   22.024  25.079  21.884  23.834  21.477
   21.510  20.207  21.862  21.468  22.910
   21.721  19.135  21.322  24.512  21.701
   17.583  17.819  18.739  22.207  25.751

    0.850  21.877
   23.160  25.690  28.067  27.071  27.140
   21.935  25.663  21.886  23.493  22.486
   22.752  21.287  21.877  20.875  23.267
   21.322  19.857  21.565  23.777  21.459
   19.057  17.269  18.587  22.073  24.824

    0.900  22.676
   22.778  26.223  28.126  26.231  27.075
   22.699  27.194  21.708  23.866  22.158
   22.914  22.097  22.676  20.546  23.834
   21.518  18.865  21.398  22.303  22.015
   18.267  18.640  17.990  22.100  24.489

    0.950  22.292
   22.876  26.631  27.360  26.701  27.810
   23.189  27.477  22.134  24.228  22.072
   23.445  22.407  22.292  18.815  24.276
   22.546  18.438  22.039  22.149  22.126
   17.364  19.282  17.905  21.907  23.132

    1.000  22.035
   23.162  25.992  27.783  26.306  27.288
   23.313  26.902  22.848  22.690  22.372
   23.812  21.354  22.035  18.216  23.611
   21.902  17.835  21.787  21.746  21.526
   17.162  19.390  18.805  23.081  22.088

    1.050  21.715
   24.894  26.083  27.594  27.077  26.810
   22.557  25.833  23.549  23.449  21.048
   23.467  21.764  21.715  19.212  23.131
   21.855  16.495  21.232  21.713  23.642
   16.624  17.404  19.155  23.708  21.421

    1.100  22.095
   25.951  25.152  27.324  27.849  27.116
   23.329  26.259  22.059  24.033  22.682
   22.175  22.530  22.095  19.422  22.508
   21.630  16.510  21.289  21.392  23.900
   16.737  17.193  16.767  22.821  22.632

    1.150  22.122
   24.775  24.989  27.363  27.820  26.004
   22.977  25.462  23.419  25.107  22.987
   21.119  23.244  22.122  21.140  23.528
   21.923  16.478  20.682  22.255  23.261
   17.946  17.550  17.651  22.060  21.625

    1.200  21.507
   23.940  25.279  27.078  29.131  25.200
   24.485  25.468  24.012  25.291  21.846
   21.124  22.509  21.507  20.891  25.491
   21.894  16.878  20.812  22.572  23.561
   17.589  17.903  16.948  22.110  20.990

    1.250  22.137
   23.561  26.712  26.594  29.136  26.021
   24.880  25.653  23.105  25.338  23.504
   21.402  22.992  22.137  21.279  24.936
   21.904  16.905  21.344  22.551  24.565
   18.872  17.086  18.599  21.101  20.253

    1.300  21.953
   22.968  27.738  26.947  28.406  25.655
   23.936  25.532  23.356  25.729  25.607
   21.384  23.205  21.953  21.273  25.576
   22.060  17.489  21.500  20.695  23.985
   18.692  17.681  19.099  22.382  20.303

    1.350  22.319
   22.130  28.882  27.027  28.060  24.748
   22.454  25.030  24.150  24.949  24.644
   21.338  23.895  22.319  20.371  24.140
   22.146  17.689  21.671  20.733  24.778
   19.476  19.022  18.596  21.755  20.956

    1.400  22.091
   23.974  28.183  27.452  27.759  25.162
   21.679  23.943  24.918  25.298  24.827
   22.454  23.765  22.091  19.795  24.917
   22.424  18.099  22.299  21.204  26.583
   20.061  19.245  18.333  20.705  20.614

    1.450  23.098
   25.028  27.485  25.605  28.220  25.729
   21.483  24.058  25.372  24.321  24.669
   22.735  24.569  23.098  19.471  24.236
   22.448  18.953  22.121  20.153  26.241
   18.678  18.407  17.504  21.205  20.672

    1.500  22.478
   25.162  27.770  25.298  29.482  27.026
   20.778  24.807  25.300  23.957  24.435
   23.782  24.902  22.478  19.559  23.416
   23.009  19.880  22.738  19.168  26.192
   18.800  17.446  16.344  21.740  22.319

    1.550  21.402
   25.584  27.770  25.373  29.625  26.944
   21.310  25.015  26.199  23.807  23.773
   24.453  26.029  21.402  21.214  25.835
   22.967  19.326  23.833  19.478  25.985
   18.422  16.622  17.700  21.545  22.476

    1.600  21.239
   25.717  27.966  26.306  30.283  26.607
   22.173  24.623  25.393  24.124  24.306
   23.875  25.378  21.239  22.232  25.132
   23.773  20.031  22.533  19.450  25.487
   19.116  17.757  18.285  21.935  21.339

    1.650  21.067
   26.345  28.191  25.684  30.149  26.349
   22.932  24.824  25.590  24.903  23.363
   22.643  25.034  21.067  22.195  25.623
   24.307  19.259  20.681  20.565  25.688
   19.454  18.313  18.580  22.084  21.430

    1.700  20.756
   26.679  27.507  26.011  31.049  27.279
   23.490  25.182  25.777  24.621  23.812
   22.908  25.407  20.756  22.243  25.931
   24.883  19.296  20.652  20.507  24.348
   18.906  16.703  18.328  22.634  21.660

    1.750  20.635
   26.209  26.715  26.442  30.222  27.750
   23.122  25.732  25.518  24.833  24.304
   23.201  25.946  20.635  22.749  26.174
   25.619  19.862  21.680  21.510  24.561
   19.181  17.893  18.392  22.321  21.866

    1.800  21.384
   26.906  27.719  25.969  30.025  27.839
   24.754  25.194  25.419  25.196  25.455
   22.787  25.836  21.384  21.645  26.451
   25.966  19.737  21.765  21.810  24.634
   19.878  18.383  17.769  21.130  23.577

    1.850  22.466
   26.584  25.802  25.216  29.416  27.046
   24.335  24.729  25.815  25.167  25.316
   23.809  25.776  22.466  22.338  26.037
   25.210  19.186  21.552  22.904  23.195
   20.858  18.712  17.576  19.783  23.108

    1.900  22.524
   24.920  25.885  25.269  27.961  25.784
   24.403  24.186  25.575  24.742  26.305
   24.308  24.360  22.524  22.414  26.562
   24.358  18.897  22.310  21.959  22.504
   21.319  18.362  18.423  18.985  23.524

    1.950  22.863
   25.624  26.357  26.133  28.454  26.287
   24.181  25.256  25.195  25.402  24.971
   25.012  24.218  22.863  22.959  25.581
   24.138  18.446  22.728  22.676  21.758
   21.203  18.336  18.011  18.819  24.535

    2.000  23.133
   25.436  25.600  26.838  29.306  25.813
   25.373  24.786  25.789  25.337  24.308
   24.977  23.590  23.133  22.894  25.408
   23.306  19.137  21.702  22.923  21.365
   20.328  19.839  16.840  17.584  22.395

    2.050  21.274
   25.035  25.688  27.515  29.057  26.719
   26.350  24.775  26.444  25.134  23.533
   23.911  23.242  21.274  22.611  25.934
   22.030  19.707  22.274  23.389  22.046
   19.213  19.318  16.831  17.268  21.065

    2.100  21.058
   25.468  26.026  27.262  29.147  25.551
   26.823  24.807  26.519  24.595  23.696
   24.195  23.622  21.058  22.797  24.944
   22.929  19.645  22.799  23.044  22.910
   18.911  21.405  18.019  16.400  19.599

    2.150  21.347
   26.094  25.167  27.550  28.640  25.442
   26.461  25.444  26.060  25.223  23.497
   25.030  24.339  21.347  22.124  26.146
   23.166  19.393  22.386  21.238  23.806
   18.180  20.336  17.443  16.007  18.684

    2.200  20.475
   25.325  24.055  28.251  28.778  25.876
   26.052  26.707  25.128  24.994  23.170
   23.866  23.690  20.475  22.754  26.811
   24.477  18.100  23.436  21.546  23.723
   17.297  20.618  17.737  14.816  17.335

    2.250  20.724
   24.596  24.791  26.628  29.212  26.581
   25.419  26.031  24.685  23.961  22.899
   22.506  23.905  20.724  22.403  25.313
   26.011  17.445  23.109  20.314  23.491
   17.508  20.465  17.660  13.831  16.720

    2.300  20.716
   25.355  24.569  26.122  29.802  26.340
   25.627  25.985  23.706  24.288  23.085
   21.969  23.511  20.716  22.973  25.411
   25.342  17.332  22.898  20.356  22.654
   18.875  20.097  17.530  14.726  17.400

    2.350  20.820
   25.439  24.208  26.463  28.572  27.218
   24.846  25.649  22.628  23.292  21.977
   20.934  23.733  20.820  21.860  25.631
   24.355  17.408  21.629  21.128  22.243
   18.446  19.494  16.622  15.474  17.039

    2.400  20.340
   25.464  23.663  25.749  29.041  26.612
   25.354  24.229  22.421  23.897  22.058
   21.462  24.639  20.340  21.938  25.220
   23.900  17.964  21.853  20.008  23.324
   18.147  19.621  16.987  16.121  18.731

    2.450  19.499
   24.293  24.534  26.102  28.545  26.651
   24.450  24.911  22.879  23.831  22.578
   20.550  23.576  19.499  22.043  25.036
   22.952  18.037  21.289  20.179  21.045
   18.781  19.741  17.967  15.648  19.082

    2.500  18.825
   22.609  23.605  25.103  27.735  25.984
   23.783  25.184  22.889  24.119  21.598
   20.623  21.503  18.825  21.802  24.329
   22.598  18.977  21.862  18.724  21.583
   18.572  18.943  17.230  16.140  18.995

    2.550  19.030
   22.363  23.840  24.724  26.536  25.523
   23.866  23.831  23.169  22.943  21.515
   20.715  22.709  19.030  21.338  24.163
   22.964  18.788  21.815  19.270  21.683
   18.880  18.579  17.139  15.202  18.289

    2.600  19.142
   22.992  23.605  24.731  25.805  25.317
   22.831  23.605  22.097  22.051  23.519
   20.421  23.054  19.142  21.698  24.084
   22.823  18.305  21.552  20.639  22.246
   19.398  19.350  17.033  15.867  17.977

    2.650  20.242
   21.955  23.237  24.559  24.162  24.081
   22.585  22.686  22.022  22.445  23.525
   20.314  21.858  20.242  21.295  23.264
   22.729  17.666  22.324  19.949  21.438
   19.109  19.714  17.609  15.648  18.898

    2.700  19.912
   22.910  23.529  24.118  25.199  22.473
   22.588  22.041  22.191  24.388  23.395
   20.420  21.606  19.912  22.052  23.730
   23.146  17.832  22.773  19.380  20.239
   19.198  20.108  18.153  15.775  18.274

    2.750  19.913
   23.198  25.422  23.503  24.702  23.160
   21.554  21.400  23.979  24.799  23.042
   21.274  21.828  19.913  22.302  24.436
   23.738  18.929  22.070  20.739  18.493
   17.068  20.207  18.623  16.055  19.105

    2.800  20.651
   23.469  25.313  23.125  24.309  23.308
   20.909  22.479  24.007  24.805  23.089
   21.405  21.814  20.651  21.476  24.341
   23.629  17.627  20.972  20.312  18.725
   16.099  20.199  18.936  16.413  17.620

    2.850  20.139
   24.504  24.262  21.953  24.003  23.185
   23.459  22.367  24.035  25.135  22.797
   21.054  20.500  20.139  21.628  24.287
   24.485  17.740  20.910  21.262  18.935
   16.552  20.849  18.412  15.965  18.133

    2.900  20.200
   23.547  23.451  21.603  23.937  23.151
   24.344  22.885  24.171  25.739  22.237
   21.826  20.631  20.200  21.302  23.149
   24.288  18.489  20.308  20.722  18.465
   16.306  21.052  19.233  15.351  18.980

    2.950  20.372
   22.640  23.057  22.014  24.109  20.841
   24.681  22.737  23.298  25.226  21.961
   21.123  21.775  20.372  20.680  23.876
   24.228  18.929  20.505  19.267  19.915
   16.141  21.466  19.179  15.175  18.015

    3.000  19.814
   23.077  22.213  21.140  24.001  21.156
   24.735  22.912  22.971  23.765  21.754
   21.339  21.005  19.814  19.970  22.639
   22.989  17.978  21.077  18.079  20.129
   15.799  21.403  19.862  15.632  17.615

    3.050  19.519
   23.047  20.496  21.121  23.428  20.926
   24.571  23.302  22.217  23.681  20.702
   21.345  19.986  19.519  20.540  21.135
   21.440  17.180  20.942  17.888  20.139
   15.142  20.206  20.180  16.755  17.607

    3.100  19.418
   22.180  19.642  20.358  23.826  20.673
   24.130  21.907  22.177  23.292  20.346
   20.587  18.669  19.418  20.771  20.475
   21.528  17.442  20.522  18.714  19.921
   15.407  19.862  19.556  16.806  16.760

    3.150  18.387
   21.934  20.332  19.488  24.521  20.437
   23.543  21.671  21.349  22.895  21.870
   20.518  18.979  18.387  20.629  21.232
   22.409  17.389  20.934  19.105  20.416
   15.385  19.772  20.377  17.290  16.518

    3.200  16.944
   21.087  22.459  20.169  23.454  20.909
   22.370  22.028  21.232  24.236  21.066
   20.509  18.205  16.944  21.034  20.054
   21.375  17.496  21.195  18.368  19.283
   15.406  19.005  21.978  15.865  17.052

    3.250  18.227
   21.151  22.678  19.630  24.462  21.606
   21.974  20.954  21.331  22.913  21.274
   20.871  18.416  18.227  21.676  20.190
   21.276  16.315  19.461  19.258  18.796
   14.663  17.614  21.784  16.296  17.824

    3.300  20.142
   21.165  22.964  19.140  23.558  21.699
   23.091  20.693  21.990  23.657  20.662
   19.859  17.726  20.142  21.299  20.797
   21.317  15.764  19.135  20.235  19.834
   14.770  17.756  21.092  16.709  17.789

    3.350  20.031
   21.271  21.722  20.113  23.523  22.249
   22.933  20.120  21.235  24.141  20.045
   20.660  17.565  20.031  21.517  21.600
   21.189  15.689  19.245  20.878  20.507
   14.523  19.056  20.991  16.597  16.650

    3.400  19.523
   21.490  20.756  20.367  24.201  21.287
   22.653  20.467  20.433  22.105  19.951
   20.023  18.749  19.523  20.989  21.300
   21.328  15.797  20.240  20.658  21.243
   13.428  20.393  19.694  16.609  15.495

    3.450  20.132
   20.869  21.903  19.576  23.223  20.887
   22.160  20.143  19.787  20.943  19.997
   19.756  19.298  20.132  21.272  20.192
   20.170  16.978  19.289  20.342  20.975
   12.581  20.785  20.051  14.882  14.973

    3.500  20.566
   21.235  22.471  20.360  22.045  20.134
   21.391  18.939  21.050  20.468  21.280
   19.268  19.170  20.566  21.001  20.306
   20.022  17.432  19.474  19.077  21.176
   11.915  21.025  19.415  15.621  14.384

    3.550  19.474
   20.737  21.287  22.069  21.225  20.447
   21.267  18.876  20.059  20.552  21.044
   19.485  20.177  19.474  20.750  20.328
   20.555  16.982  19.184  19.975  20.690
   11.739  19.942  18.965  15.186  14.003

    3.600  21.452
   19.958  21.463  22.136  20.418  20.372
   21.553  20.760  20.533  20.407  20.234
   19.199  19.362  21.452  20.252  21.212
   19.666  16.645  19.848  20.800  20.987
   12.301  19.938  18.771  15.680  13.913

    3.650  19.031
   19.994  20.555  23.208  19.670  21.576
   21.999  20.524  21.029  19.858  20.497
   19.072  19.197  19.031  19.064  20.894
   18.892  16.371  19.439  19.961  20.768
   12.252  20.572  18.491  14.597  15.074

    3.700  18.433
   18.627  19.965  22.128  20.083  21.006
   21.544  19.385  20.714  20.393  20.027
   18.778  18.692  18.433  18.497  21.246
   18.672  16.285  19.578  19.764  20.524
   12.535  20.421  19.145  14.699  15.307

    3.750  19.138
   19.276  19.155  20.352  20.262  21.003
   21.842  18.296  22.499  18.759  20.322
   19.458  17.434  19.138  17.639  21.890
   18.869  16.199  19.018  19.517  20.470
   12.653  20.947  18.288  15.403  15.703

    3.800  19.853
   19.968  20.370  20.662  20.025  20.300
   21.232  17.213  23.806  17.927  21.281
   20.155  17.112  19.853  17.454  22.124
   18.557  16.196  18.906  19.430  20.164
   13.642  20.089  17.807  15.717  16.086

    3.850  19.714
   19.859  20.945  20.675  20.965  20.506
   21.615  17.574  23.302  18.820  20.239
   20.629  16.902  19.714  18.031  20.937
   18.074  14.976  19.276  19.288  20.175
   14.561  18.337  17.238  16.521  15.952

    3.900  19.292
   20.824  20.656  19.983  21.774  20.521
   21.444  17.758  21.784  18.098  20.396
   20.157  18.178  19.292  18.228  21.259
   17.087  16.168  18.896  19.137  20.750
   15.620  18.712  17.590  16.966  16.298

    3.950  19.485
   21.885  20.736  19.746  19.782  21.118
   20.995  17.969  20.904  17.943  19.511
   20.399  17.468  19.485  17.701  22.365
   15.612  16.058  17.872  18.226  20.948
   15.445  17.441  17.498  16.535  16.819

    4.000  19.691
   22.659  20.499  19.891  19.879  22.266
   21.718  17.619  20.745  18.508  19.380
   21.106  17.137  19.691  19.424  21.235
   16.583  16.988  16.199  17.773  21.822
   14.712  18.046  16.421  17.719  17.617

    4.050  19.309
   23.111  20.135  21.067  20.932  21.246
   21.034  17.543  21.706  19.021  19.657
   21.126  17.230  19.309  19.936  22.023
   16.917  16.444  17.187  18.018  21.971
   13.327  18.033  16.482  17.642  16.267

    4.100  20.068
   23.819  20.247  20.746  21.719  22.559
   21.540  16.069  21.106  19.805  19.232
   21.877  18.441  20.068  19.542  19.779
   16.409  16.070  17.891  17.897  21.903
   13.197  19.317  17.687  16.679  16.238

    4.150  19.891
   23.076  19.369  19.291  20.873  21.267
   21.436  15.498  20.387  19.062  19.359
   22.346  19.032  19.891  20.077  20.058
   18.193  17.971  18.174  18.091  21.926
   13.714  17.866  17.041  17.121  14.690

    4.200  19.842
   23.685  19.667  16.912  20.426  20.330
   21.358  16.149  20.620  18.265  19.316
   22.497  17.277  19.842  19.594  20.467
   16.937  18.933  19.237  17.982  20.357
   12.993  18.849  17.891  16.483  14.217

    4.250  18.777
   23.772  19.599  17.264  20.557  21.451
   23.592  16.193  20.581  19.644  19.852
   23.220  17.482  18.777  18.673  19.804
   16.929  18.780  18.554  18.289  20.015
   13.521  19.408  17.837  16.766  14.244

    4.300  18.301
   23.800  19.938  18.177  21.354  21.867
   22.390  17.183  20.160  20.415  19.629
   22.373  18.592  18.301  19.751  18.924
   18.007  19.192  17.942  17.346  19.517
   15.352  18.694  17.782  15.941  13.958

    4.350  18.527
   24.394  19.688  16.927  21.479  22.458
   22.366  16.893  19.145  19.605  20.568
   21.706  18.497  18.527  18.733  17.703
   17.382  18.811  18.263  18.324  17.972
   16.154  18.866  18.168  15.387  12.825

    4.400  18.550
   24.534  18.381  16.968  20.398  22.768
   22.685  16.348  18.756  19.424  21.088
   21.452  18.525  18.550  19.320  17.849
   16.864  17.668  18.562  17.476  18.325
   16.003  19.509  18.530  14.914  14.150

    4.450  17.555
   23.568  18.897  15.877  22.068  22.953
   20.468  16.232  18.866  19.265  22.497
   21.645  19.593  17.555  20.770  18.038
   17.649  17.646  19.372  18.082  17.516
   16.416  18.589  19.159  16.952  15.236

    4.500  16.424
   23.246  18.788  15.064  21.931  22.498
   20.349  17.814  19.862  20.377  21.706
   21.524  19.352  16.424  20.181  18.389
   18.123  17.876  19.161  17.724  18.190
   16.849  19.062  18.651  15.589  15.925

    4.550  17.099
   22.254  18.985  15.370  21.617  22.490
   20.582  17.206  20.314  19.851  21.837
   20.537  18.673  17.099  20.908  19.102
   17.456  17.605  18.527  17.870  18.154
   17.737  19.192  18.729  14.737  16.766

    4.600  18.044
   21.362  18.935  15.321  22.834  22.167
   21.067  18.058  19.639  19.220  22.792
   19.931  18.817  18.044  22.216  20.437
   17.049  18.752  17.784  17.820  18.147
   17.570  17.977  17.908  15.663  17.506

    4.650  17.748
   21.145  18.950  14.411  21.904  21.389
   20.220  17.233  19.287  18.834  21.823
   19.917  19.912  17.748  22.148  21.396
   16.683  18.063  18.335  17.335  18.224
   18.045  17.789  19.062  15.211  17.624

    4.700  17.626
   20.783  17.454  15.948  21.453  21.449
   20.423  17.891  16.902  18.121  21.706
   19.451  19.063  17.626  22.854  22.037
   17.451  16.626  18.022  19.229  18.541
   18.972  18.184  20.463  14.810  17.549

    4.750  17.825
   21.014  17.924  17.125  21.982  21.864
   20.573  17.609  16.001  18.985  22.293
   19.005  18.407  17.825  23.156  22.268
   16.486  17.402  18.992  19.977  17.336
   19.826  18.307  19.925  14.384  16.822

    4.800  18.266
   20.873  19.314  16.910  22.712  23.278
   20.992  18.563  16.826  18.918  20.147
   18.649  19.208  18.266  23.734  20.879
   16.846  17.226  18.055  19.209  17.420
   21.000  18.110  20.217  14.940  17.718

    4.850  18.124
   20.170  18.949  17.718  21.574  22.059
   20.149  17.918  17.680  18.134  20.771
   18.802  18.441  18.124  23.159  22.177
   17.175  16.761  18.564  18.527  19.118
   21.383  18.157  20.982  15.853  18.933

    4.900  19.248
   19.334  18.702  17.401  21.638  21.786
   20.507  16.697  19.340  17.704  20.751
   17.640  18.852  19.248  23.536  22.406
   18.056  17.949  17.791  19.158  19.582
   20.916  18.221  20.195  15.123  18.141

    4.950  18.800
   19.126  17.237  17.703  21.227  21.251
   20.261  17.224  18.075  18.646  20.624
   18.412  19.201  18.800  22.675  21.487
   18.942  17.132  18.830  19.486  20.431
   20.923  17.489  19.525  16.963  18.245

    5.000  18.819
   18.397  17.337  17.437  21.879  21.271
   20.297  16.932  18.283  18.363  20.269
   17.883  20.060  18.819  23.236  21.842
   18.738  17.193  18.472  19.966  20.749
   20.160  16.855  18.527  15.708  18.672

    5.050  19.419
   19.652  17.289  17.603  22.063  21.015
   20.196  17.190  17.764  18.997  19.599
   17.139  20.659  19.419  23.257  21.720
   19.825  16.735  17.922  21.291  21.501
   19.655  16.837  16.978  15.276  20.313

    5.100  19.884
   19.331  16.562  18.160  21.564  20.307
   19.324  17.669  18.029  19.818  18.738
   18.212  19.253  19.884  24.147  21.421
   20.263  17.022  17.402  21.375  21.500
   19.727  16.473  17.337  14.934  21.067

    5.150  20.803
   19.720  16.923  19.114  21.691  19.525
   18.479  17.731  18.365  20.520  18.486
   19.410  18.824  20.803  25.385  20.341
   19.942  17.448  16.693  21.524  21.875
   19.787  16.115  17.292  15.987  20.390

    5.200  20.506
   19.701  16.656  20.437  21.229  20.426
   17.587  17.385  17.431  20.771  19.139
   18.464  18.177  20.506  24.179  19.813
   18.987  17.054  16.568  21.148  22.577
   20.310  17.176  17.563  16.400  20.450

    5.250  20.785
   20.936  17.634  21.055  22.354  20.241
   16.510  16.614  18.270  21.380  19.806
   18.035  17.200  20.785  23.053  22.708
   18.093  16.607  17.993  22.303  21.344
   21.152  18.006  18.928  17.399  20.667

    5.300  20.367
   20.547  18.350  21.105  21.844  20.634
   15.261  16.261  19.093  20.927  20.168
   17.678  16.475  20.367  22.898  23.025
   19.251  17.216  18.241  22.280  21.820
   22.127  18.844  20.319  16.813  19.047

    5.350  20.037
   20.813  18.133  21.088  19.785  20.878
   14.758  17.072  19.119  21.029  20.540
   17.372  16.464  20.037  22.006  22.048
   19.679  18.131  18.719  22.258  21.814
   21.246  19.721  19.460  17.088  19.882

    5.400  19.518
   20.032  17.152  21.356  20.622  21.448
   16.059  16.757  19.481  21.451  20.930
   17.357  17.427  19.518  20.690  20.780
   19.262  18.556  18.969  21.137  20.558
   20.944  19.505  20.386  17.714  21.300

    5.450  19.146
   19.931  17.898  21.450  22.202  20.547
   15.212  16.410  19.940  21.259  19.760
   17.564  18.014  19.146  21.228  21.577
   20.454  18.520  18.659  20.743  20.994
   19.042  20.034  20.324  18.742  20.467

    5.500  19.034
   20.232  17.835  21.940  21.919  20.556
   15.512  16.776  19.872  20.728  19.443
   17.738  17.923  19.034  21.160  21.993
   18.179  19.299  18.921  20.452  22.261
   19.129  19.869  19.236  18.916  19.403

    5.550  18.315
   18.779  18.169  21.512  20.689  21.566
   15.233  16.808  19.324  22.728  19.824
   17.824  16.038  18.315  21.455  22.521
   17.548  20.007  19.199  19.375  22.607
   19.284  20.509  20.230  18.057  19.069

    5.600  18.450
   19.937  17.843  20.770  20.829  21.359
   14.865  18.209  20.142  22.311  19.304
   18.443  15.974  18.450  21.842  22.615
   17.333  18.893  19.761  19.021  22.806
   20.302  21.218  20.339  18.363  18.589

    5.650  18.269
   19.030  18.264  19.482  20.565  22.234
   15.000  19.299  20.169  22.158  19.755
   18.364  16.596  18.269  21.178  23.877
   17.456  19.530  20.662  17.385  22.739
   19.085  21.091  20.481  18.733  17.731

    5.700  17.959
   18.531  18.837  19.262  20.056  22.961
   15.298  20.087  19.427  21.718  20.235
   17.897  18.149  17.959  21.622  23.500
   17.766  18.443  20.214  16.643  22.295
   18.796  21.096  21.809  19.937  17.398

    5.750  18.579
   19.056  19.467  19.089  20.696  22.843
   14.692  20.667  19.702  22.846  20.675
   16.328  17.412  18.579  20.901  22.251
   17.151  18.396  20.564  16.581  22.052
   18.212  21.547  20.810  20.712  19.628

    5.800  19.944
   18.597  18.722  20.609  21.455  23.094
   13.990  20.509  20.505  22.774  21.062
   15.765  16.765  19.944  21.590  22.868
   17.096  19.304  20.364  17.099  22.267
   18.628  21.478  21.047  21.619  20.064

    5.850  19.237
   17.551  18.928  21.736  21.049  23.104
   15.748  20.985  20.406  21.985  21.308
   15.658  17.122  19.237  20.685  23.207
   17.732  18.878  20.273  17.504  21.092
   17.512  20.764  20.103  22.197  20.664

    5.900  19.141
   17.157  19.123  21.085  20.983  23.752
   15.534  20.875  21.214  21.607  20.163
   16.139  16.503  19.141  21.098  22.724
   17.877  18.429  19.208  18.740  20.222
   17.705  20.653  20.847  23.071  20.263

    5.950  19.208
   17.973  18.873  20.285  22.519  24.413
   15.380  20.123  20.259  22.256  20.851
   16.584  16.907  19.208  19.999  23.592
   18.682  18.910  17.995  19.191  20.993
   18.649  18.623  19.990  23.292  20.051

    6.000  18.729
   17.313  19.211  20.470  22.225  24.803
   15.193  19.626  19.890  23.200  21.279
   16.086  17.319  18.729  20.676  24.243
   17.919  18.761  18.024  19.146  20.484
   18.240  17.434  19.606  22.043  19.104

    6.050  19.729
   17.780  17.596  21.617  23.526  23.069
   15.494  18.834  21.875  22.745  21.642
   17.539  17.480  19.729  19.907  24.513
   17.907  18.305  18.177  19.321  20.451
   17.088  16.924  19.922  21.938  19.220

    6.100  19.321
   18.629  17.337  21.284  22.940  23.424
   16.456  18.690  21.371  23.694  21.479
   16.911  16.726  19.321  19.905  24.678
   17.417  17.473  19.423  19.916  20.749
   17.830  15.083  18.184  22.365  20.008

    6.150  19.257
   19.392  16.123  20.393  23.337  23.091
   16.241  18.485  21.822  25.220  22.170
   18.286  16.270  19.257  20.089  24.329
   18.077  17.857  18.119  18.835  19.799
   16.571  16.286  17.968  22.677  20.114

    6.200  18.680
   20.810  16.073  21.719  23.926  23.216
   15.604  18.496  20.980  24.938  21.924
   17.547  15.552  18.680  19.650  22.669
   18.334  18.574  17.265  18.940  20.622
   15.906  19.550  18.052  22.101  21.797

    6.250  18.233
   19.875  15.199  19.952  24.669  23.624