
This full-field turbulence file was generated by TurbSim (v1.50, 25-Sep-2009) on 25-Sep-2009 at 13:08:02.

 | w-comp |  Y  x  Z  | Grid Resolution (Y x Z) | Time-step | Hub Elev | Mean U |
             5     5      7.500      7.500          0.050      37.00     18.38

 Z Coordinates (m):
  -15.000  -7.500   0.000   7.500  15.000

 Y Coordinates (m):
  -15.000  -7.500   0.000   7.500  15.000

    0.000   3.028
    3.700   0.589   4.204   3.923   1.599
    4.491   1.018   1.493   3.025   3.488
    2.796  -0.110   3.028  -0.578   3.303
    4.411   1.284  -0.183   3.384   1.758
    2.677   1.238   3.411   4.441   2.399

    0.050   2.707
    3.519   0.332   2.236   4.764   1.505
    5.510   0.941   1.170   4.187   4.018
    1.743  -0.021   2.707  -1.165   3.256
    4.432   2.557  -0.393   2.373   2.517
    3.895   1.284   2.727   5.133   3.144

    0.100   3.488
    3.925   0.876   2.227   3.990   2.237
    6.347   2.616   1.590   4.650   2.862
    2.972   0.158   3.488  -0.650   2.802
    3.110   2.417   0.446   2.998   1.673
    4.115   1.858   2.242   5.942   4.116

    0.150   2.993
    4.661   0.268   2.887   4.616   1.659
    7.276   1.679   2.482   2.409   4.439
    4.248   0.150   2.993   0.560   3.022
    1.418   1.954   1.091   4.336   0.423
    4.877   0.766   2.114   6.138   4.103

    0.200   3.532
    3.722  -0.143   3.173   3.635   1.922
    7.410   0.471   2.760   1.512   4.539
    3.868  -1.002   3.532   0.799   3.302
    2.612   3.060  -0.349   3.375   0.812
    3.349  -1.061   3.004   5.057   2.637

    0.250   4.162
    2.944   0.480   1.731   3.083   1.678
    6.716   0.474   2.801   2.275   4.416
    2.816  -0.533   4.162   1.425   4.868
    4.254   3.707   0.541   2.673   0.221
    2.993  -2.206   3.498   3.319   1.954

    0.300   2.779
    1.901   0.155   2.740   3.745   2.428
    6.133   1.079   3.676   1.423   3.731
    1.486   0.097   2.779   1.323   4.744
    2.578   3.994  -0.497   3.763   0.865
    2.540  -1.518   2.566   4.006   3.367

    0.350   1.278
    2.271   0.143   3.894   3.934   2.973
    5.800   1.874   3.389  -0.050   5.396
    1.468   0.269   1.278   0.335   5.775
    3.723   4.777  -0.616   3.069   1.520
    2.883  -1.237   1.857   5.217   3.323

    0.400   1.843
    1.514   0.257   4.043   1.863   3.175
    4.415   3.963   4.700  -0.040   5.181
    2.182   0.767   1.843   0.792   5.732
    4.603   3.432  -0.236   3.471   1.470
    4.493  -1.910   1.614   3.917   2.700

    0.450   1.257
    2.628   1.389   4.044   2.957   3.076
    5.091   3.236   4.350  -1.203   4.576
    3.599   0.676   1.257   1.053   6.842
    4.824   2.977   0.104   3.726   2.464
    5.219  -1.561   2.634   1.982   3.050

    0.500   1.459
    1.440   1.207   5.173   2.880   4.883
    5.643   0.907   4.117   0.020   3.593
    3.124   1.597   1.459   2.360   7.378
    4.191   1.797  -0.343   2.882   1.766
    4.288  -0.809   1.909   1.357   1.967

    0.550   1.296
    1.958   1.194   4.177   2.270   4.515
    5.877   0.545   3.900   1.343   3.871
    3.744   1.170   1.296   0.850   6.691
    4.298   3.267   0.957   2.782   0.471
    5.668  -0.622   0.602   0.522   0.593

    0.600   1.866
    3.480  -0.355   4.199   3.481   2.768
    4.769   1.294   4.039   2.570   3.490
    3.267   1.493   1.866  -0.018   6.157
    1.840   0.960   0.648   1.861  -0.355
    5.757   0.604  -0.057   1.405   0.394

    0.650   1.563
    4.504   0.180   2.717   4.453   2.453
    5.562   1.863   3.097   3.490   2.603
    2.976   0.926   1.563   0.543   6.085
    0.535   0.370  -0.226   1.821  -0.122
    6.095   1.418  -0.347   2.297   1.100

    0.700   0.796
    4.257   0.638   2.852   4.634   2.575
    4.940   2.366   2.864   2.371   2.375
    4.029   1.217   0.796   1.043   6.171
    0.535  -0.003  -0.485   2.413   0.483
    5.402   0.700   2.164   1.446   1.614

    0.750   1.363
    4.885  -0.403   2.947   3.881   1.820
    4.855   2.812   2.916   0.926   2.776
    4.639   1.335   1.363   1.881   4.114
    1.275   1.302  -1.037   2.176   0.808
    5.689   0.208   2.155   0.747   1.531

    0.800   2.165
    5.345   0.414   3.039   2.966   2.299
    4.742   3.102   2.845   0.277   2.363
    4.096   2.433   2.165   1.152   4.731
    1.338   1.603  -1.469   1.903  -0.103
    4.276  -1.279   1.683   1.176   0.606

    0.850   1.887
    5.258   1.760   2.540   2.787   2.460
    4.003   1.615   2.566   1.340   2.811
    3.510   2.019   1.887   1.748   6.002
    1.198   2.865  -1.104   0.982   1.722
    4.964   0.180   2.129   2.405   1.374

    0.900   1.789
    4.358   1.773   1.474   2.325   2.893
    2.664   2.469   2.885   1.686   3.102
    3.404   1.421   1.789   1.965   5.928
    1.829   3.621  -2.197   0.911   1.518
    6.018  -0.152   2.203   2.681   1.794

    0.950   2.250
    3.517   1.836   2.332   3.399   2.355
    1.811   3.757   3.112   1.455   1.414
    4.025   1.488   2.250   1.863   5.251
    1.817   3.848  -0.794   0.904   0.849
    5.885   0.102   2.808   2.850   1.809

    1.000   1.871
    2.672   0.530   2.586   3.727   3.192
    3.659   3.610   2.138   0.248   0.034
    2.704   1.778   1.871   2.297   5.323
    1.964   3.610  -1.555   1.372   0.238
    4.324   0.690   2.641   2.657   1.036

    1.050   2.432
    2.814   1.125   1.997   4.343   3.615
    2.157   3.278   2.199   0.076   1.627
    2.444   2.967   2.432   2.445   3.807
    2.993   2.327  -0.506   2.164   0.050
    2.689   0.790   2.537   2.830   1.736

    1.100   1.996
    2.563   0.323   0.779   2.851   2.539
    1.560   2.924   4.032   1.575   2.467
    2.612   2.972   1.996   2.748   3.420
    1.732   2.817  -1.314   3.313   1.128
    3.569  -1.162   2.476   4.263   3.710

    1.150   1.436
    3.169  -0.701   3.095   2.969   3.190
    0.365   1.800   4.297   2.046   2.901
    1.807   3.819   1.436   1.929   3.320
    1.922   1.541  -1.632   3.955   2.917
    4.041  -0.676   3.392   4.517   4.089

    1.200   2.360
    4.357  -0.679   3.533   3.279   3.589
    0.676   2.221   2.507   2.639   3.313
    0.117   3.310   2.360   1.230   1.834
    1.201   1.740  -0.399   3.931   1.768
    5.068  -0.697   3.199   4.783   3.452

    1.250   1.936
    4.165  -0.384   2.776   3.872   1.708
   -0.821   1.400   3.183   2.562   0.852
    0.721   3.192   1.936   1.583   1.964
    1.058   3.162   0.551   3.045   1.518
    4.554  -0.120   2.026   3.848   3.836

    1.300   2.463
    4.907   0.661   1.357   2.982   1.896
    0.711   1.365   2.428   2.058   0.438
    0.933   3.884   2.463   2.624   1.405
    0.096   3.224   0.977   3.045   1.183
    2.953   0.572   3.050   3.552   3.254

    1.350   0.798
    4.738   0.195   3.315   2.362   2.074
    0.740   1.557   2.991   3.565   0.899
    0.580   2.186   0.798   3.397   1.148
    1.213   2.629   0.792   4.064   0.647
    2.659  -0.194   1.843   4.588   3.129

    1.400   1.008
    3.565  -0.115   4.607   1.227   2.235
    1.789   0.109   3.792   4.265  -0.217
    0.557   2.099   1.008   2.131   1.571
    2.760   2.346   1.062   3.025   1.289
    2.951   0.499   2.019   4.028   2.156

    1.450   1.344
    2.929  -0.830   5.185   1.973   2.067
    3.272   1.202   3.657   4.949   1.139
    0.087   1.941   1.344   2.040   1.407
    2.860   3.790   0.705   2.230   1.091
    1.834   1.986   3.159   3.859   2.373

    1.500   1.696
    2.610  -0.210   5.196   1.610   0.954
    3.844   1.787   3.180   4.531   1.502
   -0.143   2.311   1.696   2.005   2.414
    2.631   1.844   1.916   1.902   2.284
    2.261   1.303   1.722   2.666   1.591

    1.550   3.288
    2.608   0.312   2.927   1.920   2.004
    3.545   1.629   1.661   4.479   1.035
   -0.468   3.123   3.288   1.265   3.047
    2.108   1.921   1.269   2.728   1.148
    2.860   1.456   1.671   1.842   3.032

    1.600   3.014
    3.435   0.761   2.472   0.767   2.908
    2.973   2.201   3.735   3.365   2.289
   -0.126   1.806   3.014   1.266   3.731
    1.015   1.911   1.158   3.527   2.143
    1.484   1.187   3.313   1.123   4.218

    1.650   2.806
    2.651   1.159   4.083   0.593   2.647
    2.876   2.344   3.748   3.575   2.600
    0.635   2.786   2.806   1.983   2.989
    0.662   3.393   1.299   1.986   3.142
    1.962   2.174   4.225   0.641   3.821

    1.700   2.050
    1.563   1.075   5.042  -0.142   1.109
    2.430   2.724   2.599   2.736   3.592
    0.475   3.478   2.050   2.632   3.046
    1.586   3.786   0.666   0.723   3.415
    1.266   3.891   4.200   0.848   3.027

    1.750   2.887
    2.067   1.505   5.738  -0.803   0.544
    2.429   3.365   2.173   4.062   2.962
   -0.682   2.863   2.887   2.416   2.510
    0.476   3.244   0.297  -0.482   3.677
    3.205   4.194   3.872   0.822   4.036

    1.800   6.102
    2.851   2.266   5.803   0.353   1.084
    2.230   3.058   1.631   4.213   2.892
   -0.684   2.260   6.102   1.902   2.638
    0.429   2.187  -0.246  -0.474   3.914
    3.584   3.234   3.488   0.000   3.511

    1.850   5.784
    1.513   2.533   5.003   0.910   1.859
    1.981   2.676   2.289   4.223   2.887
   -0.981   2.129   5.784   2.652   2.914
    1.950   1.986   0.579  -0.529   2.852
    2.682   3.887   3.893  -0.432   2.742

    1.900   5.350
    2.549   1.478   4.896   0.571   1.510
    1.521   3.373   2.389   5.139   2.778
    0.296   2.001   5.350   2.346   3.377
    0.963   1.702   0.166   0.400   2.559
    2.177   3.911   4.484   0.551   2.998

    1.950   4.222
    2.923   0.097   3.194   0.354   1.300
    0.210   3.120   3.164   4.286   1.328
   -1.281   2.835   4.222   2.654   3.363
    2.005   1.264   0.729   2.200   1.816
    2.384   3.857   3.705   0.846   1.460

    2.000   4.100
    1.934   0.166   2.561   1.272   2.558
   -0.584   3.887   3.134   2.383   1.789
   -1.688   2.427   4.100   1.809   2.429
    2.415   1.124   0.650   1.885   3.357
    1.300   3.027   3.912   0.417   1.319

    2.050   3.948
    1.626   1.588   1.543   1.221   2.688
    0.809   4.165   2.342   2.380   1.543
   -1.923   1.392   3.948   1.680   2.180
    1.047   1.884   1.068   2.090   3.270
    0.537   1.850   2.976  -0.160   3.079

    2.100   3.863
   -0.055   2.604   1.656  -0.083   1.849
   -0.028   3.204   4.200   2.354   0.637
   -0.354   1.157   3.863   2.570   2.152
    1.921   2.230   1.217   4.615   2.728
    1.279   0.829   2.151   0.140   3.106

    2.150   2.695
    0.164   3.918   2.543   1.105   2.608
    1.794   3.453   4.568   3.589   1.628
    0.462   1.149   2.695   2.350   1.797
    1.645   2.948   0.854   4.134   1.837
    0.856   0.257   2.863  -0.275   4.375

    2.200   3.305
   -0.458   3.477   2.937   0.703   3.195
    1.329   3.435   5.014   3.246   3.095
    0.896   0.836   3.305   1.836   2.520
    1.008   2.990   2.289   5.290   2.342
    2.183   0.198   3.753   0.622   4.588

    2.250   3.787
   -0.240   1.263   2.942   1.475   0.997
    0.720   3.505   4.815   3.310   2.627
    1.953   1.548   3.787   1.172   3.108
    1.046   3.330   1.822   5.053   1.965
    1.640   0.039   3.779   0.681   4.678

    2.300   3.627
    0.737   2.621   3.612   1.360   0.784
    0.320   2.257   4.125   2.511   1.581
    1.361   0.989   3.627   0.491   2.867
    1.246   2.349   2.430   4.326   1.047
    1.427   0.551   4.686   0.651   5.256

    2.350   2.642
    0.392   3.640   3.925   2.886   0.397
    1.071   2.032   2.219   3.269   1.910
    2.405   1.737   2.642  -0.658   2.924
    0.843   2.622   2.848   2.726   1.243
    2.614  -0.053   4.805   0.276   5.594

    2.400   2.336
    1.213   1.977   3.467   2.573   0.421
    0.953   3.012   2.592   3.512   2.507
    0.869   2.242   2.336   0.352   2.851
    0.247   3.092   2.072   3.845   0.605
    2.436  -0.973   4.486   0.481   4.024

    2.450   3.512
    0.560   1.944   4.747   1.525   0.902
    0.395   2.497   3.349   3.284   2.280
    0.330   4.153   3.512   2.534   2.311
    1.005   3.319   2.154   1.714   1.452
    1.542  -0.685   4.826   0.365   2.344

    2.500   3.459
    0.203   1.643   4.249   0.614  -0.282
   -0.358   3.239   2.519   2.337   1.543
    0.915   3.758   3.459   3.652   2.965
    0.160   2.359   1.668   0.939   0.418
   -0.015  -0.288   5.491  -0.352   2.877

    2.550   3.330
    0.938   0.642   3.248   1.695  -0.460
   -0.731   3.448   3.617   2.936   0.537
    1.766   2.679   3.330   1.939   2.641
    1.219   2.568   1.480   1.134  -0.026
   -0.376   0.355   4.755   0.345   2.912

    2.600   4.557
    1.315   1.185   3.819   1.447   0.849
    0.996   3.324   2.133   1.672   0.768
    2.353   2.305   4.557   1.828   3.179
    1.548   4.271   1.322   1.704   1.080
    0.968  -0.257   4.202   1.683   3.049

    2.650   3.977
    1.421   1.294   4.180   0.878   0.457
    0.229   1.907   1.476   1.824   0.691
    2.198   0.130   3.977   2.425   3.846
    0.763   4.126   1.599   1.592   1.823
    2.560   0.652   5.259   1.287   2.652

    2.700   4.571
   -0.077   1.323   3.765   0.980   0.264
    0.072   2.365   2.340   1.666   0.587
    1.846   2.010   4.571   1.151   3.204
    1.824   3.227   1.435   2.975   1.911
    1.883   1.998   5.696  -0.026   1.842

    2.750   4.194
    1.382   1.124   4.033   2.206   0.004
    0.214   1.359   3.968   2.894  -0.061
    1.344   1.438   4.194   1.062   1.633
    2.977   3.016   1.806   2.461   2.292
    0.774   1.372   6.143   0.179   1.362

    2.800   3.529
    1.641   1.296   3.254   3.087   0.150
    1.382   2.435   4.288   2.778   0.641
    0.347   1.963   3.529   1.633   0.875
    3.387   3.469   1.435   2.994   2.434
    0.372   1.483   6.243   2.185   2.433

    2.850   3.440
    0.199   0.335   2.408   2.610   0.128
    0.590   3.100   2.824   2.042   0.778
    1.326   0.727   3.440   2.474   1.937
    2.939   1.944   1.717   2.590   2.796
    0.660   0.373   5.561   1.279   2.330

    2.900   2.921
   -0.101   1.733   2.514   3.026   0.175
    1.223   3.278   2.873   1.518   0.288
    0.666   0.362   2.921   2.641   1.228
    2.623   0.956   0.918   2.866   2.922
   -0.123   2.466   5.511   1.821   1.684

    2.950   2.141
    0.637   2.049   1.244   4.116   1.596
    2.837   3.208   2.063   1.627   0.335
    1.409   1.257   2.141   2.227   1.259
    2.475   1.533   1.321   3.389   4.470
    0.631   1.170   5.845   2.981   1.012

    3.000   2.027
   -0.361   2.035   1.183   3.579   2.125
    2.474   3.064   2.579   2.265  -0.552
    2.163   1.828   2.027   1.427   2.192
    1.931   1.369   1.897   2.519   3.227
    0.896   2.983   4.828   1.201   0.935

    3.050   1.431
   -0.679   2.355   2.098   3.858   2.372
    3.350   3.629   3.434   4.723   0.899
    2.419   2.660   1.431   1.361   2.307
    3.275   1.200   0.708   2.682   4.560
    0.652   2.669   3.341   1.911   1.574

    3.100   3.232
    0.475   1.825   1.720   3.280   0.368
    2.365   3.214   2.947   3.214   1.602
    2.949   3.038   3.232   1.608   1.905
    3.661   0.483   1.613   3.966   4.203
    0.954   2.399   3.548   1.372   1.033

    3.150   3.515
   -0.386   2.723   1.697   3.150   0.407
    1.289   3.557   2.588   2.908   2.639
    3.493   2.163   3.515   1.699   3.837
    3.240  -0.363   2.136   2.689   5.037
   -0.040   3.092   3.755   1.081   0.850

    3.200   2.926
   -0.633   1.628   0.559   2.746   1.561
    1.862   3.532   2.152   3.383   2.627
    2.974   1.305   2.926   4.061   4.407
    2.950   0.045   2.304   1.513   4.763
    0.596   3.663   4.071   0.406  -0.213

    3.250   2.993
   -1.916   1.410   0.817   0.923   1.887
    2.212   2.910   2.605   2.042   2.870
    3.722   0.785   2.993   2.909   3.115
    3.296   1.890   2.145   1.861   5.379
    0.070   3.446   2.848   0.229  -0.424

    3.300   2.565
   -1.900   1.830  -0.550   0.664   1.541
    3.071   3.646   3.136   1.304   1.737
    3.867   1.244   2.565   3.277   3.774
    4.585   2.090   0.745   1.474   4.243
    0.194   3.199   2.984  -0.147  -0.284

    3.350   2.371
   -1.872   3.074  -0.437   0.237   1.311
    4.047   3.983   1.344   2.070   0.854
    4.177   0.939   2.371   4.158   4.063
    3.941   1.455   1.276   1.085   4.675
   -0.514   1.176   3.289  -0.264  -0.669

    3.400   3.477
   -0.833   0.997  -1.151  -0.172   1.270
    4.643   3.664   1.588   3.151   0.509
    3.585   1.884   3.477   4.101   3.135
    4.022   2.014   1.189   1.467   5.170
   -0.144   1.920   1.727  -1.546  -1.298

    3.450   2.808
    0.651   1.903   0.292   0.573   0.780
    4.924   2.581   0.700   2.570   0.011
    4.507   3.156   2.808   4.768   1.468
    4.453   0.399   1.607   0.270   4.697
   -0.255   2.532   3.573  -0.869  -1.047

    3.500   2.709
    0.785   1.122  -0.807   0.009   1.621
    4.640   2.901   1.215   1.442   0.388
    5.234   2.024   2.709   4.624   0.306
    5.465   0.211   1.535  -0.399   4.470
   -1.081   1.707   2.992   0.636   0.585

    3.550   3.418
   -0.482   0.804  -0.255   1.017   2.015
    4.230   0.803   2.900   1.226  -0.391
    4.239   1.972   3.418   3.047   0.286
    5.826   0.326   2.462   1.607   4.630
   -1.800   1.821   3.044   1.484   0.782

    3.600   2.468
    0.540   1.433   0.815   1.245   2.223
    1.561   0.926   3.048   0.762   0.161
    3.708   2.362   2.468   1.943   0.952
    5.536  -0.655   2.425   2.358   5.031
   -1.098   2.473   2.982  -0.432   1.261

    3.650   1.499
    2.054   1.290   0.619   1.474   1.371
    0.721   1.361   4.704   1.750   1.728
    3.049   2.052   1.499   3.062  -0.476
    5.686  -0.384   1.261   0.385   5.198
   -0.318   3.046   2.505  -0.315   0.852

    3.700   1.275
    1.636   1.821   1.322   0.695   0.263
    1.056   2.522   4.051   2.140   0.074
    4.333   2.100   1.275   2.022   0.733
    5.089   0.039   1.130  -0.214   5.160
   -1.055   3.540   1.574   0.858   0.560

    3.750   1.634
    2.444   3.463   1.732   0.004   1.132
    1.286   2.200   4.664   2.218  -0.731
    4.134   3.915   1.634   1.894  -0.588
    3.726  -0.441   1.447  -0.493   4.237
   -0.634   4.129   1.946   0.824   1.227

    3.800   2.002
    2.359   3.079   1.129   0.832   0.911
    3.626   1.221   4.125   1.593  -0.094
    3.605   0.948   2.002   1.388  -1.100
    5.450  -1.552   0.898   1.419   2.927
   -0.548   4.342   2.779   2.863   0.318

    3.850   3.603
    1.096   3.254  -0.333   1.359   1.238
    3.016   1.848   3.604   0.850   1.332
    2.935   2.539   3.603   2.162  -1.363
    5.060  -2.287   1.584   0.203   4.153
   -0.193   4.997   1.813   1.976   0.119

    3.900   3.829
    0.919   4.023  -1.628   0.939   1.734
    4.126   0.410   4.159   2.255   1.276
    2.457   2.624   3.829   3.412  -1.393
    3.372  -1.466   2.994   1.758   4.391
   -0.591   4.398   1.512   0.364   0.662

    3.950   3.946
    1.066   3.802   0.153   0.297   0.790
    4.972  -0.346   4.539   3.029   2.190
    3.996   2.336   3.946   2.705  -1.358
    4.119  -1.570   3.798   2.348   4.176
    0.163   4.214   1.774   1.314  -0.280

    4.000   3.357
   -0.652   3.054   1.059   1.543  -0.417
    3.795   0.618   4.879   3.540   1.939
    4.276   3.199   3.357   2.486  -1.024
    2.890  -1.169   3.061   3.990   4.021
    1.049   4.352   2.253   0.282  -0.010

    4.050   2.455
    0.179   2.160   1.274   1.843   1.167
    3.243   0.074   3.663   3.141   1.494
    4.642   4.436   2.455   2.265   0.075
    1.307  -1.992   3.736   3.209   4.212
    0.495   3.243   1.892  -0.674   1.208

    4.100   2.086
   -0.656   2.946   1.104   0.884   0.567
    1.067   0.670   2.478   2.462   2.354
    3.886   4.931   2.086   1.947   0.258
    0.758  -1.136   3.659   3.114   4.342
    1.801   2.924   2.485   0.078   0.225

    4.150   1.331
   -1.291   3.488   0.778   0.915   1.018
    1.191   0.813   1.742   1.640   1.369
    2.257   4.698   1.331   0.832  -0.561
    0.266  -1.466   2.922   3.769   2.626
    1.847   2.313   2.713   0.200  -0.384

    4.200   0.852
   -0.521   3.546   0.295   0.533   0.461
    2.096   0.354   1.156   1.140   1.844
    3.073   4.229   0.852   2.379  -0.363
    0.703  -0.993   2.504   3.240   1.594
    2.143   3.382   2.386   0.110  -0.843

    4.250   1.172
   -0.337   1.863   1.236   0.918   0.299
    2.079   1.977   1.041   1.494   2.907
    3.537   4.439   1.172   2.689   0.423
   -0.016  -0.775   2.580   4.012   2.011
    1.800   2.127   1.433   1.767  -2.634

    4.300   1.418
   -0.902   2.618   1.110   1.675   0.105
    2.129   1.483   1.105   1.882   3.178
    3.031   3.803   1.418   2.387  -0.429
    0.973  -0.167   2.960   3.087   1.083
    2.119   1.028   0.566   0.235  -3.517

    4.350   1.599
   -1.621   3.491   1.587   2.876   0.931
    2.242   1.839   0.827   1.675   3.080
    1.580   3.979   1.599   2.735   0.122
    2.076   0.969   2.920   4.059   1.782
    2.300   1.616   0.971   0.296  -2.288

    4.400   1.660
   -2.359   4.040   2.295   2.987   0.211
    3.214   2.462   0.731   1.634   3.952
    1.580   1.916   1.660   3.907   0.460
    1.887   0.810   3.557   3.771   2.352
    1.281   2.314   1.163   1.395  -1.334

    4.450   2.331
   -1.052   3.472   1.493   1.911   0.051
    3.478   2.543   2.290   2.315   3.710
    1.520   2.432   2.331   3.620   0.577
    2.125   1.094   2.871   2.098   2.572
    2.040   1.988   2.583   0.836  -0.830

    4.500   2.812
   -0.380   3.443   1.102   1.254   0.385
    2.285   2.260   2.105   1.645   1.546
   -0.164   1.742   2.812   3.065   1.143
    1.921   0.847   2.433   2.413   0.984
    2.520   0.065   2.423   0.926   0.516

    4.550   2.492
   -0.811   4.267   1.510   1.646   0.514
    3.006   0.679   1.309   2.812   0.999
    0.840   1.044   2.492   2.428   0.250
    2.825   0.473   3.099   3.764   1.968
    2.395   1.210   1.707   0.906  -0.172

    4.600   2.099
    0.533   3.701   1.810   0.624   3.137
    2.944   0.125   1.164   1.748   0.704
    0.451   2.022   2.099   1.329  -0.199
    3.342   0.195   2.098   4.255   2.749
    3.398   3.023   1.207   2.560   0.782

    4.650   2.423
   -1.418   4.023   0.101  -0.035   3.022
    1.576  -0.164   0.985   2.168   0.862
   -0.433   2.819   2.423   1.202  -1.458
    4.106   0.421   1.236   5.265   1.207
    3.678   1.912   1.191   1.283   0.806

    4.700   1.933
   -0.666   5.475   0.001   0.430   1.923
    1.600   0.024   1.051   2.709   1.311
    1.200   2.491   1.933   1.185  -1.039
    3.703   1.291   1.538   5.479   1.116
    4.159   2.557   0.802   1.414   0.636

    4.750   2.133
   -0.479   5.891  -0.184   0.925   2.104
    1.104  -0.301   1.608   2.617   1.398
    1.456   0.778   2.133   3.264  -0.070
    2.059   0.368   1.371   4.182   2.704
    3.722   2.091  -0.220   1.201   0.034

    4.800   2.244
   -0.241   3.906   0.064   0.007   2.172
    2.236  -0.511   1.818   1.829   1.818
    1.684   0.801   2.244   3.266   1.942
    1.330  -0.748   0.133   4.187   1.743
    2.966   3.118   0.593   2.628   0.202

    4.850   2.217
   -0.547   4.294   0.989   1.189   2.549
    2.401   0.404   2.155   1.435   3.014
    1.236   1.883   2.217   4.146   1.613
    1.439   0.848   1.663   4.515   1.295
    2.711   3.256  -0.200   3.780   0.864

    4.900   2.424
   -0.978   4.331   2.139   3.619   1.604
    1.665  -0.340   2.876   2.332   3.609
    0.590   4.268   2.424   3.153   1.364
    1.990   0.517   2.746   3.499   2.890
    2.617   3.085  -1.872   2.850   0.925

    4.950   2.147
   -0.872   4.675   1.075   2.779   1.495
    1.330  -0.609   3.508   2.607   3.960
    0.131   3.281   2.147   3.120   2.286
    1.426   1.017   5.018   3.529   3.500
    1.582   3.082  -0.788   3.124   1.364

    5.000   1.796
   -0.783   3.273   0.982   1.436   1.752
    1.153  -1.120   2.955   2.500   3.916
    0.093   3.114   1.796   2.801   2.166
    0.910   1.890   3.600   2.963   2.678
    3.215   2.113   0.537   3.276   0.927

    5.050   1.339
   -0.485   2.097   1.650   1.651   3.122
    0.383  -1.153   2.673   3.604   1.942
   -0.114   3.309   1.339   3.769   1.433
    1.406   0.903   3.288   3.811   2.431
    3.973   1.504  -1.141   2.880   0.480

    5.100   1.206
   -0.821   2.465   3.023   0.976   3.546
    0.248  -0.816   3.560   2.763   2.610
   -0.916   2.790   1.206   4.206   2.103
    1.498   0.561   2.944   3.289   0.109
    4.771   1.123  -0.924   3.039   0.655

    5.150   1.294
   -1.214   3.072   3.127  -0.461   3.144
    1.277  -1.637   2.249   2.385   3.012
   -0.876   2.241   1.294   3.906   1.952
    1.888  -0.440   3.684   3.022   0.593
    4.603   0.765  -1.419   1.775   0.046

    5.200   2.415
   -1.930   2.610   2.888   0.271   2.764
    1.308  -0.795   1.080   3.315   2.035
   -0.594   3.629   2.415   4.293   2.808
    1.137   0.332   4.190   2.387   0.782
    4.004   1.774  -0.777   1.576   0.825

    5.250   2.995
   -1.792   1.973   2.964   0.142   2.902
    0.115  -1.492   1.662   4.061   1.169
   -1.980   3.124   2.995   3.018   2.783
    0.351   1.985   4.164   1.833   1.538
    5.009   2.687  -0.136   1.482  -0.083

    5.300   2.472
   -2.145   2.403   2.813  -0.693   1.312
    0.896  -1.840   1.608   2.860  -0.059
   -1.925   1.381   2.472   2.127   2.758
    0.640   2.692   3.208   2.680   2.232
    4.784   2.716  -0.029   1.513   0.611

    5.350   1.825
   -2.530   2.274   1.954  -0.977   2.640
    1.286  -1.412   1.224   2.815  -0.245
   -0.144   0.312   1.825   2.766   2.635
    0.952   2.011   2.873   3.185   0.943
    4.520   1.992   0.842   0.421   1.503

    5.400   1.910
   -1.691   2.491   2.196   0.406   1.382
    2.171  -1.586   0.709   3.011   0.370
    1.341   2.463   1.910   4.464   2.072
    0.675   2.695   2.955   2.797   1.069
    4.240   0.220   0.654   0.914   1.435

    5.450   2.682
   -1.870   1.525   2.028   1.097   0.213
    1.525  -1.814   2.654   2.438   0.278
    1.323   2.421   2.682   3.860   2.187
    1.835   1.313   3.959   3.230   0.672
    4.690  -0.451  -0.143   0.478   1.880

    5.500   2.053
   -0.522   1.775   2.762   1.727   1.359
    0.481  -2.513   1.367   1.503   1.267
    1.324   1.713   2.053   3.737   2.123
    0.900   0.413   2.526   1.638   1.374
    3.326  -0.779  -0.324   1.635   3.077

    5.550   1.893
   -0.797   0.943   3.183   2.547   1.902
    1.626  -2.251   0.879   2.154   1.839
    1.737   0.310   1.893   3.004   2.479
   -0.039   0.910   1.045   1.213   3.152
    4.305  -0.391   1.573   0.985   2.368

    5.600   2.413
   -3.096   1.709   3.656   1.697   1.056
    1.333  -2.338   2.279   2.537   2.192
    3.276   0.553   2.413   3.486   1.515
   -1.095   1.552   2.158   2.090   3.609
    4.928  -0.108   1.670   0.520   3.339

    5.650   2.554
   -2.576   1.494   2.186   1.975   0.250
    1.218  -0.812   1.706   3.110   0.864
    2.486   1.387   2.554   3.453   1.558
   -1.063  -0.246   2.654   2.906   4.582
    3.479  -1.492   2.013  -0.407   2.495

    5.700   1.883
   -1.448   1.651   3.849   2.092   0.557
    2.890  -1.158   0.840   3.566   1.241
    2.491   2.456   1.883   4.296   3.394
    0.756  -0.269   2.636   3.430   4.952
    2.640  -0.524   0.917  -0.048   1.258

    5.750   1.891
    1.396   0.629   3.087   2.263   1.650
    3.531  -2.642   1.140   2.313   3.150
    2.496   1.606   1.891   4.960   3.196
   -0.311  -1.057   0.918   2.461   4.250
    1.323   0.645   0.384  -0.085   0.971

    5.800   0.618
    0.556   0.715   4.268   0.602   2.489
    3.344  -1.326   2.982   1.397   2.060
    4.942   1.914   0.618   4.631   3.424
   -0.545   0.819   0.236   2.517   4.207
    1.363   1.621   1.742   0.625   2.062

    5.850   1.234
    0.952   0.820   3.258   0.884   0.733
    2.856  -3.197   4.657   0.867   2.499
    6.070   2.509   1.234   3.525   2.771
    1.382   0.678  -0.366   3.107   3.513
    0.661   1.659   2.533  -0.201   2.211

    5.900   1.005
    1.262   1.163   2.691   0.111   1.352
    3.420  -2.255   4.245   1.772   2.534
    3.626   3.156   1.005   2.858   3.310
    2.470   0.568   0.219   3.293   4.399
   -0.834   2.486   2.258  -0.374   1.945

    5.950   0.814
    0.424   0.227   5.007  -0.453   2.037
    3.957  -0.864   4.404   1.922   3.132
    3.343   2.981   0.814   2.625   4.068
    2.458   0.628   0.318   3.802   3.931
   -0.615   2.774   1.097  -0.007   1.908

    6.000   1.695
   -1.747   0.455   5.547   0.192   1.449
    4.209  -1.409   3.996   2.411   2.704
    4.541   3.077   1.695   2.503   3.430
    3.451   0.453   0.790   3.277   3.983
   -0.089   3.322   1.323   0.336   2.042

    6.050   1.443
   -1.803   0.556   4.432   0.078   2.155
    3.388  -2.133   4.098   1.777   2.891
    4.818   2.001   1.443   2.011   4.193
    3.800   1.936   1.988   2.169   4.907
    0.215   3.334   2.026   1.359   2.195

    6.100   1.937
   -1.371   0.298   4.979  -2.183   3.606
    2.274  -2.785   2.481   0.882   2.888
    3.746   1.305   1.937   1.574   4.545
    2.889   2.715   3.639   2.678   4.404
    1.132   2.880   0.449   0.686   1.144

    6.150   3.160
   -2.144   0.326   4.792  -1.989   3.047
    3.007  -2.570   2.137  -0.340   1.536
    2.901   1.806   3.160   3.169   3.552
    1.303   2.093   3.451   2.142   5.800
    1.363   3.142   0.412   1.903   0.316

    6.200   3.659
   -3.433   1.027   5.827  -0.536   2.646
    2.665  -2.851   1.815   1.854   1.285
    1.819   2.286   3.659   2.595   4.025
   -0.392   1.862   3.720   3.780   3.728
    1.362   3.765  -0.139   1.934   1.813

    6.250   2.798
   -3.419   0.914   5.845   0.169   3.625