! This hub-height wind-speed file was generated by TurbSim (v1.06.00, 21-Sep-2012) on 25-Sep-2012 at 13:53:51.
!
! The requested statistics for this data were:
!    Mean Total Wind Speed =   18.378 m/s
!    Turbulence Intensity  =   16.000%
!
!   Time  HorSpd  WndDir  VerSpd  HorShr  VerShr  LnVShr  GstSpd
!  (sec)   (m/s)   (deg)   (m/s)     (-)     (-)     (-)   (m/s)
   0.000   24.65   -6.20    3.76   0.000   0.200   0.000    0.00
   0.050   23.84   -6.54    3.50   0.000   0.200   0.000    0.00
   0.100   22.87   -9.00    4.22   0.000   0.200   0.000    0.00
   0.150   24.18   -9.50    3.78   0.000   0.200   0.000    0.00
   0.200   24.26   -9.94    4.27   0.000   0.200   0.000    0.00
   0.250   23.48   -8.33    4.82   0.000   0.200   0.000    0.00
   0.300   22.81   -5.07    3.51   0.000   0.200   0.000    0.00
   0.350   22.54   -6.25    2.09   0.000   0.200   0.000    0.00
   0.400   22.95   -6.57    2.56   0.000   0.200   0.000    0.00
   0.450   22.74   -9.11    2.00   0.000   0.200   0.000    0.00
   0.500   22.68  -12.56    2.17   0.000   0.200   0.000    0.00
   0.550   22.59  -12.19    2.02   0.000   0.200   0.000    0.00
   0.600   20.83  -12.40    2.54   0.000   0.200   0.000    0.00
   0.650   21.03  -16.83    2.27   0.000   0.200   0.000    0.00
   0.700   21.60  -17.56    1.58   0.000   0.200   0.000    0.00
   0.750   21.92  -16.28    2.13   0.000   0.200   0.000    0.00
   0.800   21.90  -16.79    2.89   0.000   0.200   0.000    0.00
   0.850   21.68  -14.69    2.67   0.000   0.200   0.000    0.00
   0.900   22.23  -12.93    2.61   0.000   0.200   0.000    0.00
   0.950   21.85  -12.74    3.07   0.000   0.200   0.000    0.00
   1.000   21.66  -13.47    2.76   0.000   0.200   0.000    0.00
   1.050   21.88  -18.39    3.30   0.000   0.200   0.000    0.00
   1.100   21.88  -15.49    2.93   0.000   0.200   0.000    0.00
   1.150   22.27  -18.65    2.45   0.000   0.200   0.000    0.00
   1.200   21.91  -20.36    3.32   0.000   0.200   0.000    0.00
   1.250   22.04  -16.90    2.98   0.000   0.200   0.000    0.00
   1.300   21.81  -16.49    3.48   0.000   0.200   0.000    0.00
   1.350   22.15  -16.62    2.00   0.000   0.200   0.000    0.00
   1.400   22.04  -17.57    2.24   0.000   0.200   0.000    0.00
   1.450   22.97  -17.61    2.62   0.000   0.200   0.000    0.00
   1.500   22.42  -18.01    3.05   0.000   0.200   0.000    0.00
   1.550   21.13  -15.70    4.62   0.000   0.200   0.000    0.00
   1.600   20.60  -11.57    4.48   0.000   0.200   0.000    0.00
   1.650   20.39  -10.97    4.38   0.000   0.200   0.000    0.00
   1.700   20.19  -12.36    3.79   0.000   0.200   0.000    0.00
   1.750   20.10  -12.83    4.68   0.000   0.200   0.000    0.00
   1.800   20.92  -14.60    7.73   0.000   0.200   0.000    0.00
   1.850   21.65  -11.74    7.54   0.000   0.200   0.000    0.00
   1.900   21.72  -12.07    7.18   0.000   0.200   0.000    0.00
   1.950   22.08  -12.75    6.16   0.000   0.200   0.000    0.00
   2.000   22.03   -8.93    6.05   0.000   0.200   0.000    0.00
   2.050   20.59  -12.54    5.91   0.000   0.200   0.000    0.00
   2.100   20.47  -13.60    5.83   0.000   0.200   0.000    0.00
   2.150   20.58  -11.88    4.76   0.000   0.200   0.000    0.00
   2.200   19.96  -14.14    5.32   0.000   0.200   0.000    0.00
   2.250   20.40  -16.50    5.77   0.000   0.200   0.000    0.00
   2.300   20.25  -15.26    5.63   0.000   0.200   0.000    0.00
   2.350   20.10  -12.43    4.73   0.000   0.200   0.000    0.00
   2.400   19.64  -12.31    4.47   0.000   0.200   0.000    0.00
   2.450   18.83  -11.99    5.57   0.000   0.200   0.000    0.00
   2.500   18.58  -16.52    5.55   0.000   0.200   0.000    0.00
   2.550   18.91  -18.03    5.47   0.000   0.200   0.000    0.00
   2.600   18.90  -17.03    6.60   0.000   0.200   0.000    0.00
   2.650   19.59  -13.52    6.09   0.000   0.200   0.000    0.00
   2.700   19.19  -12.36    6.62   0.000   0.200   0.000    0.00
   2.750   19.26  -13.24    6.25   0.000   0.200   0.000    0.00
   2.800   19.90  -12.84    5.60   0.000   0.200   0.000    0.00
   2.850   19.33  -11.49    5.47   0.000   0.200   0.000    0.00
   2.900   19.31  -10.19    4.94   0.000   0.200   0.000    0.00
   2.950   19.65  -12.94    4.18   0.000   0.200   0.000    0.00
   3.000   19.09  -12.30    4.04   0.000   0.200   0.000    0.00
   3.050   18.71  -10.68    3.50   0.000   0.200   0.000    0.00
   3.100   18.68  -11.81    5.15   0.000   0.200   0.000    0.00
   3.150   17.91  -14.29    5.42   0.000   0.200   0.000    0.00
   3.200   16.62  -14.68    4.88   0.000   0.200   0.000    0.00
   3.250   17.60  -12.08    4.92   0.000   0.200   0.000    0.00
   3.300   19.02   -5.77    4.50   0.000   0.200   0.000    0.00
   3.350   18.92   -5.58    4.32   0.000   0.200   0.000    0.00
   3.400   18.62   -9.42    5.31   0.000   0.200   0.000    0.00
   3.450   19.15   -9.02    4.68   0.000   0.200   0.000    0.00
   3.500   19.42   -6.38    4.57   0.000   0.200   0.000    0.00
   3.550   18.41   -5.43    5.19   0.000   0.200   0.000    0.00
   3.600   20.13   -3.37    4.28   0.000   0.200   0.000    0.00
   3.650   18.01   -5.11    3.36   0.000   0.200   0.000    0.00
   3.700   17.63   -9.18    3.14   0.000   0.200   0.000    0.00
   3.750   18.05   -2.97    3.47   0.000   0.200   0.000    0.00
   3.800   18.66   -0.44    3.84   0.000   0.200   0.000    0.00
   3.850   18.52    0.30    5.33   0.000   0.200   0.000    0.00
   3.900   18.16   -2.43    5.56   0.000   0.200   0.000    0.00
   3.950   18.38   -5.15    5.65   0.000   0.200   0.000    0.00
   4.000   18.50   -2.16    5.07   0.000   0.200   0.000    0.00
   4.050   18.25   -6.13    4.19   0.000   0.200   0.000    0.00
   4.100   18.92   -5.88    3.79   0.000   0.200   0.000    0.00
   4.150   18.88   -8.75    3.04   0.000   0.200   0.000    0.00
   4.200   18.79   -7.84    2.57   0.000   0.200   0.000    0.00
   4.250   18.00  -11.21    2.85   0.000   0.200   0.000    0.00
   4.300   17.53  -10.87    3.09   0.000   0.200   0.000    0.00
   4.350   17.84  -12.58    3.27   0.000   0.200   0.000    0.00
   4.400   17.83  -12.33    3.35   0.000   0.200   0.000    0.00
   4.450   16.96  -13.12    4.00   0.000   0.200   0.000    0.00
   4.500   16.16  -16.36    4.46   0.000   0.200   0.000    0.00
   4.550   16.95  -18.22    4.18   0.000   0.200   0.000    0.00
   4.600   17.45  -13.90    3.82   0.000   0.200   0.000    0.00
   4.650   17.17  -13.91    4.12   0.000   0.200   0.000    0.00
   4.700   17.15  -15.07    3.67   0.000   0.200   0.000    0.00
   4.750   17.25  -14.04    3.86   0.000   0.200   0.000    0.00
   4.800   17.77  -15.42    3.96   0.000   0.200   0.000    0.00
   4.850   17.92  -18.40    3.94   0.000   0.200   0.000    0.00
   4.900   18.75  -16.17    4.12   0.000   0.200   0.000    0.00
   4.950   18.61  -18.89    3.86   0.000   0.200   0.000    0.00
   5.000   18.92  -21.25    3.53   0.000   0.200   0.000    0.00
   5.050   18.94  -16.32    3.11   0.000   0.200   0.000    0.00
   5.100   19.45  -17.11    2.99   0.000   0.200   0.000    0.00
   5.150   19.85  -12.04    3.10   0.000   0.200   0.000    0.00
   5.200   19.81  -14.91    4.17   0.000   0.200   0.000    0.00
   5.250   19.90  -13.09    4.74   0.000   0.200   0.000    0.00
   5.300   19.46  -12.32    4.29   0.000   0.200   0.000    0.00
   5.350   19.23  -13.31    3.72   0.000   0.200   0.000    0.00
   5.400   18.79  -13.74    3.82   0.000   0.200   0.000    0.00
   5.450   18.37  -12.83    4.55   0.000   0.200   0.000    0.00
   5.500   18.42  -14.82    4.01   0.000   0.200   0.000    0.00
   5.550   17.93  -16.87    3.89   0.000   0.200   0.000    0.00
   5.600   18.13  -17.72    4.39   0.000   0.200   0.000    0.00
   5.650   18.27  -20.56    4.53   0.000   0.200   0.000    0.00
   5.700   18.56  -24.91    3.93   0.000   0.200   0.000    0.00
   5.750   18.56  -20.48    3.93   0.000   0.200   0.000    0.00
   5.800   19.34  -15.79    2.79   0.000   0.200   0.000    0.00
   5.850   18.60  -14.89    3.37   0.000   0.200   0.000    0.00
   5.900   18.47  -14.31    3.21   0.000   0.200   0.000    0.00
   5.950   18.77  -17.05    3.11   0.000   0.200   0.000    0.00
   6.000   18.45  -18.30    3.99   0.000   0.200   0.000    0.00
   6.050   19.29  -17.49    3.86   0.000   0.200   0.000    0.00
   6.100   18.87  -17.24    4.42   0.000   0.200   0.000    0.00
   6.150   18.94  -18.51    5.64   0.000   0.200   0.000    0.00
   6.200   18.63  -20.60    6.20   0.000   0.200   0.000    0.00
   6.250   18.62  -23.78    5.49   0.000   0.200   0.000    0.00
   6.300   18.48  -22.25    4.74   0.000   0.200   0.000    0.00
   6.350   18.56  -21.83    5.39   0.000   0.200   0.000    0.00
   6.400   19.58  -20.00    6.11   0.000   0.200   0.000    0.00
   6.450   20.56  -23.10    6.79   0.000   0.200   0.000    0.00
   6.500   19.78  -25.66    5.19   0.000   0.200   0.000    0.00
   6.550   21.07  -25.74    6.07   0.000   0.200   0.000    0.00
   6.600   20.80  -21.60    6.37   0.000   0.200   0.000    0.00
   6.650   19.50  -20.60    6.42   0.000   0.200   0.000    0.00
   6.700   20.26  -16.13    6.89   0.000   0.200   0.000    0.00
   6.750   19.28  -15.93    8.05   0.000   0.200   0.000    0.00
   6.800   19.90  -14.76    6.65   0.000   0.200   0.000    0.00
   6.850   19.44  -14.41    7.50   0.000   0.200   0.000    0.00
   6.900   18.63  -12.77    7.30   0.000   0.200   0.000    0.00
   6.950   17.79  -15.36    7.77   0.000   0.200   0.000    0.00
   7.000   18.19  -15.22    7.57   0.000   0.200   0.000    0.00
   7.050   19.87  -13.88    7.35   0.000   0.200   0.000    0.00
   7.100   20.52  -12.24    7.66   0.000   0.200   0.000    0.00
   7.150   20.14  -12.17    7.57   0.000   0.200   0.000    0.00
   7.200   19.82  -15.14    7.95   0.000   0.200   0.000    0.00
   7.250   21.06  -14.55    8.63   0.000   0.200   0.000    0.00
   7.300   21.70  -14.28    9.75   0.000   0.200   0.000    0.00
   7.350   21.04  -13.90   11.27   0.000   0.200   0.000    0.00
   7.400   20.43  -19.43   11.16   0.000   0.200   0.000    0.00
   7.450   20.11  -22.09   10.34   0.000   0.200   0.000    0.00
   7.500   20.75  -21.10   10.04   0.000   0.200   0.000    0.00
   7.550   21.14  -23.01    9.61   0.000   0.200   0.000    0.00
   7.600   21.37  -22.80    9.93   0.000   0.200   0.000    0.00
   7.650   20.54  -19.56   10.04   0.000   0.200   0.000    0.00
   7.700   20.39  -19.34    9.91   0.000   0.200   0.000    0.00
   7.750   19.12  -18.46    8.91   0.000   0.200   0.000    0.00
   7.800   18.78  -18.15    9.89   0.000   0.200   0.000    0.00
   7.850   18.92  -19.90   10.64   0.000   0.200   0.000    0.00
   7.900   18.82  -17.93   11.62   0.000   0.200   0.000    0.00
   7.950   19.24  -15.89   10.04   0.000   0.200   0.000    0.00
   8.000   18.90  -14.56   10.42   0.000   0.200   0.000    0.00
   8.050   18.20  -12.16    9.67   0.000   0.200   0.000    0.00
   8.100   18.72  -13.13    9.82   0.000   0.200   0.000    0.00
   8.150   19.68  -12.27   10.24   0.000   0.200   0.000    0.00
   8.200   20.09  -11.11    9.94   0.000   0.200   0.000    0.00
   8.250   21.04   -9.82   10.71   0.000   0.200   0.000    0.00
   8.300   20.85   -6.14   10.86   0.000   0.200   0.000    0.00
   8.350   20.12   -2.57   10.96   0.000   0.200   0.000    0.00
   8.400   20.70   -3.40   10.86   0.000   0.200   0.000    0.00
   8.450   20.40   -4.62   11.17   0.000   0.200   0.000    0.00
   8.500   20.38   -7.08   10.92   0.000   0.200   0.000    0.00
   8.550   19.95   -8.32   10.83   0.000   0.200   0.000    0.00
   8.600   19.74   -8.43    9.93   0.000   0.200   0.000    0.00
   8.650   20.83  -10.22    9.61   0.000   0.200   0.000    0.00
   8.700   21.04   -6.20   10.14   0.000   0.200   0.000    0.00
   8.750   21.03   -5.64    9.61   0.000   0.200   0.000    0.00
   8.800   20.22   -7.14    8.94   0.000   0.200   0.000    0.00
   8.850   20.14  -11.11    8.73   0.000   0.200   0.000    0.00
   8.900   19.53  -14.18    8.24   0.000   0.200   0.000    0.00
   8.950   18.60  -13.87    8.08   0.000   0.200   0.000    0.00
   9.000   19.41   -8.74    7.26   0.000   0.200   0.000    0.00
   9.050   19.23   -7.22    6.58   0.000   0.200   0.000    0.00
   9.100   19.17   -4.91    7.28   0.000   0.200   0.000    0.00
   9.150   19.53   -5.08    8.37   0.000   0.200   0.000    0.00
   9.200   19.42   -6.91    8.24   0.000   0.200   0.000    0.00
   9.250   20.06   -8.30    8.29   0.000   0.200   0.000    0.00
   9.300   20.32   -8.97    8.31   0.000   0.200   0.000    0.00
   9.350   20.61   -7.49    9.00   0.000   0.200   0.000    0.00
   9.400   20.23   -5.36    8.27   0.000   0.200   0.000    0.00
   9.450   20.95   -3.93    8.55   0.000   0.200   0.000    0.00
   9.500   21.92   -4.08    9.01   0.000   0.200   0.000    0.00
   9.550   21.41   -3.95    8.77   0.000   0.200   0.000    0.00
   9.600   20.55   -2.06    8.55   0.000   0.200   0.000    0.00
   9.650   21.50   -3.78    8.82   0.000   0.200   0.000    0.00
   9.700   21.57   -2.87    8.36   0.000   0.200   0.000    0.00
   9.750   22.02   -5.93    8.12   0.000   0.200   0.000    0.00
   9.800   21.21   -3.34    8.08   0.000   0.200   0.000    0.00
   9.850   21.87   -1.86    7.11   0.000   0.200   0.000    0.00
   9.900   21.96   -4.19    7.13   0.000   0.200   0.000    0.00
   9.950   21.73   -5.03    8.08   0.000   0.200   0.000    0.00
  10.000   21.48   -6.26    8.05   0.000   0.200   0.000    0.00
  10.050   21.81   -4.21    8.18   0.000   0.200   0.000    0.00
  10.100   22.26   -3.07    8.13   0.000   0.200   0.000    0.00
  10.150   21.68   -3.99    7.89   0.000   0.200   0.000    0.00
  10.200   22.49   -4.92    6.90   0.000   0.200   0.000    0.00
  10.250   22.32   -7.09    6.88   0.000   0.200   0.000    0.00
  10.300   22.41   -7.04    6.88   0.000   0.200   0.000    0.00
  10.350   21.46  -10.13    6.96   0.000   0.200   0.000    0.00
  10.400   21.67  -11.27    7.70   0.000   0.200   0.000    0.00
  10.450   22.31  -13.44    6.68   0.000   0.200   0.000    0.00
  10.500   21.26  -16.45    7.09   0.000   0.200   0.000    0.00
  10.550   22.34  -14.44    6.27   0.000   0.200   0.000    0.00
  10.600   22.32  -14.58    6.00   0.000   0.200   0.000    0.00
  10.650   21.84  -16.30    5.87   0.000   0.200   0.000    0.00
  10.700   22.93  -15.61    5.95   0.000   0.200   0.000    0.00
  10.750   23.46  -12.67    5.10   0.000   0.200   0.000    0.00
  10.800   22.36  -13.72    5.45   0.000   0.200   0.000    0.00
  10.850   23.10  -12.56    5.79   0.000   0.200   0.000    0.00
  10.900   22.72  -14.53    5.27   0.000   0.200   0.000    0.00
  10.950   22.95  -15.23    6.45   0.000   0.200   0.000    0.00
  11.000   22.19  -13.97    8.39   0.000   0.200   0.000    0.00
  11.050   22.72  -13.60    8.45   0.000   0.200   0.000    0.00
  11.100   23.54  -14.62    9.05   0.000   0.200   0.000    0.00
  11.150   23.59  -13.40    8.25   0.000   0.200   0.000    0.00
  11.200   24.38  -14.35    9.10   0.000   0.200   0.000    0.00
  11.250   25.18  -14.24    8.96   0.000   0.200   0.000    0.00
  11.300   23.97  -11.02    9.88   0.000   0.200   0.000    0.00
  11.350   24.30   -9.38    9.11   0.000   0.200   0.000    0.00
  11.400   24.28  -11.89    8.78   0.000   0.200   0.000    0.00
  11.450   24.97  -11.97   10.26   0.000   0.200   0.000    0.00
  11.500   25.32  -13.28   10.67   0.000   0.200   0.000    0.00
  11.550   25.22  -17.05    9.42   0.000   0.200   0.000    0.00
  11.600   25.86  -15.50    9.30   0.000   0.200   0.000    0.00
  11.650   25.79  -15.97   10.04   0.000   0.200   0.000    0.00
  11.700   25.26  -15.27    9.59   0.000   0.200   0.000    0.00
  11.750   24.62  -13.64    9.80   0.000   0.200   0.000    0.00
  11.800   24.95  -12.54    9.27   0.000   0.200   0.000    0.00
  11.850   24.27  -13.39    8.65   0.000   0.200   0.000    0.00
  11.900   25.63  -14.63    9.30   0.000   0.200   0.000    0.00
  11.950   24.92  -14.13    8.94   0.000   0.200   0.000    0.00
  12.000   25.78  -14.59    8.83   0.000   0.200   0.000    0.00
  12.050   25.86  -15.25    7.12   0.000   0.200   0.000    0.00
  12.100   25.40  -18.39    6.66   0.000   0.200   0.000    0.00
  12.150   24.00  -17.53    8.59   0.000   0.200   0.000    0.00
  12.200   23.90  -16.75    7.28   0.000   0.200   0.000    0.00
  12.250   25.46  -17.07    7.41   0.000   0.200   0.000    0.00
  12.300   26.19  -16.81    7.23   0.000   0.200   0.000    0.00
  12.350   26.01  -14.28    6.04   0.000   0.200   0.000    0.00
  12.400   25.84  -17.64    4.86   0.000   0.200   0.000    0.00
  12.450   25.39  -14.94    6.95   0.000   0.200   0.000    0.00
  12.500   26.13  -13.49    6.30   0.000   0.200   0.000    0.00
  12.550   26.12  -12.51    5.33   0.000   0.200   0.000    0.00
  12.600   27.47  -12.60    5.58   0.000   0.200   0.000    0.00
  12.650   28.07  -13.18    5.64   0.000   0.200   0.000    0.00
  12.700   26.84  -11.72    4.19   0.000   0.200   0.000    0.00
  12.750   25.95  -12.90    3.72   0.000   0.200   0.000    0.00
  12.800   25.67  -13.19    2.87   0.000   0.200   0.000    0.00
  12.850   25.47  -12.72    2.21   0.000   0.200   0.000    0.00
  12.900   27.12  -13.77    1.53   0.000   0.200   0.000    0.00
  12.950   26.80  -13.21    2.66   0.000   0.200   0.000    0.00
  13.000   26.03  -10.82    2.75   0.000   0.200   0.000    0.00
  13.050   27.19   -7.86    3.59   0.000   0.200   0.000    0.00
  13.100   26.97   -8.35    4.18   0.000   0.200   0.000    0.00
  13.150   26.16   -7.21    4.73   0.000   0.200   0.000    0.00
  13.200   25.54   -8.56    4.43   0.000   0.200   0.000    0.00
  13.250   25.46   -7.87    3.92   0.000   0.200   0.000    0.00
  13.300   24.51   -6.83    4.71   0.000   0.200   0.000    0.00
  13.350   24.29  -10.76    5.05   0.000   0.200   0.000    0.00
  13.400   25.70  -10.30    3.95   0.000   0.200   0.000    0.00
  13.450   25.44  -10.32    3.64   0.000   0.200   0.000    0.00
  13.500   26.38  -10.36    3.86   0.000   0.200   0.000    0.00
  13.550   26.48   -9.82    3.40   0.000   0.200   0.000    0.00
  13.600   25.57  -10.65    3.80   0.000   0.200   0.000    0.00
  13.650   25.85  -13.06    3.12   0.000   0.200   0.000    0.00
  13.700   26.22  -14.12    3.25   0.000   0.200   0.000    0.00
  13.750   25.39  -14.88    5.10   0.000   0.200   0.000    0.00
  13.800   25.98  -12.59    5.70   0.000   0.200   0.000    0.00
  13.850   25.97  -10.68    5.32   0.000   0.200   0.000    0.00
  13.900   25.27   -9.91    5.21   0.000   0.200   0.000    0.00
  13.950   24.85  -11.15    6.91   0.000   0.200   0.000    0.00
  14.000   24.48  -11.13    7.76   0.000   0.200   0.000    0.00
  14.050   24.57  -11.72    8.37   0.000   0.200   0.000    0.00
  14.100   24.52   -9.01    7.31   0.000   0.200   0.000    0.00
  14.150   25.22   -7.48    7.66   0.000   0.200   0.000    0.00
  14.200   25.09   -5.99    7.35   0.000   0.200   0.000    0.00
  14.250   24.98   -4.03    8.04   0.000   0.200   0.000    0.00
  14.300   24.01   -6.48    6.66   0.000   0.200   0.000    0.00
  14.350   23.95   -8.39    7.36   0.000   0.200   0.000    0.00
  14.400   23.88  -11.79    7.76   0.000   0.200   0.000    0.00
  14.450   24.51   -8.35    6.64   0.000   0.200   0.000    0.00
  14.500   23.05   -9.86    6.21   0.000   0.200   0.000    0.00
  14.550   21.93  -11.54    5.27   0.000   0.200   0.000    0.00
  14.600   21.12  -10.44    5.09   0.000   0.200   0.000    0.00
  14.650   22.27  -12.33    5.72   0.000   0.200   0.000    0.00
  14.700   22.58   -8.92    5.90   0.000   0.200   0.000    0.00
  14.750   22.44   -8.96    5.52   0.000   0.200   0.000    0.00
  14.800   22.71   -8.95    6.03   0.000   0.200   0.000    0.00
  14.850   22.26   -7.60    5.16   0.000   0.200   0.000    0.00
  14.900   21.98   -6.44    5.35   0.000   0.200   0.000    0.00
  14.950   22.87   -3.64    5.70   0.000   0.200   0.000    0.00
  15.000   23.73   -3.48    4.18   0.000   0.200   0.000    0.00
  15.050   23.43   -7.14    4.06   0.000   0.200   0.000    0.00
  15.100   23.86   -5.06    3.66   0.000   0.200   0.000    0.00
  15.150   23.43   -2.36    3.45   0.000   0.200   0.000    0.00
  15.200   22.90    0.58    4.95   0.000   0.200   0.000    0.00
  15.250   22.22    2.51    5.36   0.000   0.200   0.000    0.00
  15.300   21.52    1.05    7.60   0.000   0.200   0.000    0.00
  15.350   21.35    4.39    7.54   0.000   0.200   0.000    0.00
  15.400   21.44    4.49    6.65   0.000   0.200   0.000    0.00
  15.450   21.42    2.20    6.62   0.000   0.200   0.000    0.00
  15.500   21.69    0.52    5.89   0.000   0.200   0.000    0.00
  15.550   22.11   -0.72    6.72   0.000   0.200   0.000    0.00
  15.600   22.23   -3.33    7.61   0.000   0.200   0.000    0.00
  15.650   22.92   -4.93    6.94   0.000   0.200   0.000    0.00
  15.700   22.63   -1.78    6.17   0.000   0.200   0.000    0.00
  15.750   22.09   -2.55    5.65   0.000   0.200   0.000    0.00
  15.800   23.31   -0.02    5.46   0.000   0.200   0.000    0.00
  15.850   23.01    1.28    5.32   0.000   0.200   0.000    0.00
  15.900   23.59    3.65    5.96   0.000   0.200   0.000    0.00
  15.950   23.18    0.01    4.61   0.000   0.200   0.000    0.00
  16.000   21.81    1.29    3.12   0.000   0.200   0.000    0.00
  16.050   22.23   -0.12    1.48   0.000   0.200   0.000    0.00
  16.100   23.62   -0.93    1.05   0.000   0.200   0.000    0.00
  16.150   23.81    1.34    1.61   0.000   0.200   0.000    0.00
  16.200   23.14    2.91    0.86   0.000   0.200   0.000    0.00
  16.250   23.52    3.03    0.08   0.000   0.200   0.000    0.00
  16.300   23.22    5.20    1.27   0.000   0.200   0.000    0.00
  16.350   23.29    5.33    3.46   0.000   0.200   0.000    0.00
  16.400   23.86    4.85    2.65   0.000   0.200   0.000    0.00
  16.450   23.62    5.05    2.69   0.000   0.200   0.000    0.00
  16.500   23.66    9.12    1.24   0.000   0.200   0.000    0.00
  16.550   22.56   10.47    1.51   0.000   0.200   0.000    0.00
  16.600   22.44    5.19    1.64   0.000   0.200   0.000    0.00
  16.650   22.52    3.04    0.63   0.000   0.200   0.000    0.00
  16.700   22.95    4.18    0.48   0.000   0.200   0.000    0.00
  16.750   22.84    6.92    0.52   0.000   0.200   0.000    0.00
  16.800   21.66    5.90    1.78   0.000   0.200   0.000    0.00
  16.850   20.79    5.26    1.94   0.000   0.200   0.000    0.00
  16.900   22.35    0.55    2.71   0.000   0.200   0.000    0.00
  16.950   23.14   -1.28    3.40   0.000   0.200   0.000    0.00
  17.000   22.45   -3.63    3.42   0.000   0.200   0.000    0.00
  17.050   21.25   -2.71    3.84   0.000   0.200   0.000    0.00
  17.100   21.18    0.74    4.30   0.000   0.200   0.000    0.00
  17.150   21.51    0.20    4.18   0.000   0.200   0.000    0.00
  17.200   21.41   -0.44    4.29   0.000   0.200   0.000    0.00
  17.250   21.36   -4.67    4.56   0.000   0.200   0.000    0.00
  17.300   22.32   -3.81    2.93   0.000   0.200   0.000    0.00
  17.350   23.13   -4.79    3.47   0.000   0.200   0.000    0.00
  17.400   23.85   -3.26    2.19   0.000   0.200   0.000    0.00
  17.450   24.06    0.58    2.00   0.000   0.200   0.000    0.00
  17.500   22.60   -2.73    3.36   0.000   0.200   0.000    0.00
  17.550   22.42   -8.34    4.16   0.000   0.200   0.000    0.00
  17.600   23.03   -9.02    6.09   0.000   0.200   0.000    0.00
  17.650   21.66  -10.39    5.86   0.000   0.200   0.000    0.00
  17.700   21.12  -10.38    4.97   0.000   0.200   0.000    0.00
  17.750   21.02   -9.73    5.94   0.000   0.200   0.000    0.00
  17.800   23.17   -9.99    5.37   0.000   0.200   0.000    0.00
  17.850   23.88  -12.44    4.58   0.000   0.200   0.000    0.00
  17.900   23.83  -13.10    4.99   0.000   0.200   0.000    0.00
  17.950   23.85  -16.16    4.90   0.000   0.200   0.000    0.00
  18.000   23.33  -15.72    4.22   0.000   0.200   0.000    0.00
  18.050   24.14  -16.98    3.30   0.000   0.200   0.000    0.00
  18.100   23.48  -19.14    2.87   0.000   0.200   0.000    0.00
  18.150   23.40  -19.12    2.81   0.000   0.200   0.000    0.00
  18.200   22.97  -16.75    1.43   0.000   0.200   0.000    0.00
  18.250   23.61  -16.69    1.55   0.000   0.200   0.000    0.00
  18.300   23.22  -15.84    2.02   0.000   0.200   0.000    0.00
  18.350   21.81  -14.62    2.13   0.000   0.200   0.000    0.00
  18.400   20.34  -19.22    2.07   0.000   0.200   0.000    0.00
  18.450   20.32  -17.75    1.82   0.000   0.200   0.000    0.00
  18.500   20.33  -14.25    1.04   0.000   0.200   0.000    0.00
  18.550   20.24  -14.94    2.06   0.000   0.200   0.000    0.00
  18.600   20.35  -16.06    1.58   0.000   0.200   0.000    0.00
  18.650   21.96  -13.41    1.74   0.000   0.200   0.000    0.00
  18.700   22.17  -14.21    2.17   0.000   0.200   0.000    0.00
  18.750   21.31  -15.52    2.60   0.000   0.200   0.000    0.00
  18.800   21.38  -16.31    2.60   0.000   0.200   0.000    0.00
  18.850   20.52  -17.06    2.85   0.000   0.200   0.000    0.00
  18.900   19.35  -16.36    2.53   0.000   0.200   0.000    0.00
  18.950   19.25  -15.06    1.90   0.000   0.200   0.000    0.00
  19.000   19.06  -12.59    1.67   0.000   0.200   0.000    0.00
  19.050   19.38  -14.64    0.15   0.000   0.200   0.000    0.00
  19.100   19.04  -17.02   -0.64   0.000   0.200   0.000    0.00
  19.150   18.42  -16.33    0.38   0.000   0.200   0.000    0.00
  19.200   17.70  -17.03    0.39   0.000   0.200   0.000    0.00
  19.250   18.33  -15.19    0.43   0.000   0.200   0.000    0.00
  19.300   19.24  -14.04    0.91   0.000   0.200   0.000    0.00
  19.350   20.15  -12.51    1.76   0.000   0.200   0.000    0.00
  19.400   20.56  -11.94    0.97   0.000   0.200   0.000    0.00
  19.450   20.12   -9.79    0.96   0.000   0.200   0.000    0.00
  19.500   20.38   -9.26    0.36   0.000   0.200   0.000    0.00
  19.550   20.29   -6.38   -0.81   0.000   0.200   0.000    0.00
  19.600   20.30   -4.52   -1.33   0.000   0.200   0.000    0.00
  19.650   19.49   -6.73   -0.22   0.000   0.200   0.000    0.00
  19.700   20.28   -9.75   -0.48   0.000   0.200   0.000    0.00
  19.750   20.43  -10.34   -0.55   0.000   0.200   0.000    0.00
  19.800   19.65  -13.47   -0.31   0.000   0.200   0.000    0.00
  19.850   20.90  -11.34   -0.62   0.000   0.200   0.000    0.00
  19.900   20.53   -8.38   -0.61   0.000   0.200   0.000    0.00
  19.950   21.05   -9.35   -1.76   0.000   0.200   0.000    0.00
  20.000   20.73  -11.22   -1.23   0.000   0.200   0.000    0.00
  20.050   20.33  -12.42   -2.64   0.000   0.200   0.000    0.00
  20.100   20.09   -9.54   -2.91   0.000   0.200   0.000    0.00
  20.150   19.36   -9.04   -2.45   0.000   0.200   0.000    0.00
  20.200   18.97  -11.93   -2.16   0.000   0.200   0.000    0.00
  20.250   19.17  -10.83   -2.04   0.000   0.200   0.000    0.00
  20.300   19.46  -11.01   -1.97   0.000   0.200   0.000    0.00
  20.350   18.72   -7.75   -2.15   0.000   0.200   0.000    0.00
  20.400   17.84  -11.06   -1.31   0.000   0.200   0.000    0.00
  20.450   17.79  -15.18   -1.07   0.000   0.200   0.000    0.00
  20.500   18.11  -19.43   -1.52   0.000   0.200   0.000    0.00
  20.550   17.63  -20.47   -1.70   0.000   0.200   0.000    0.00
  20.600   16.47  -16.76   -1.74   0.000   0.200   0.000    0.00
  20.650   17.57  -17.70   -2.16   0.000   0.200   0.000    0.00
  20.700   16.90  -18.50   -2.84   0.000   0.200   0.000    0.00
  20.750   17.09  -19.90   -2.65   0.000   0.200   0.000    0.00
  20.800   17.22  -23.00   -3.10   0.000   0.200   0.000    0.00
  20.850   17.24  -18.33   -2.91   0.000   0.200   0.000    0.00
  20.900   17.35  -18.79   -2.82   0.000   0.200   0.000    0.00
  20.950   17.00  -17.63   -3.60   0.000   0.200   0.000    0.00
  21.000   17.31  -15.33   -5.41   0.000   0.200   0.000    0.00
  21.050   17.59  -13.18   -5.67   0.000   0.200   0.000    0.00
  21.100   17.56  -17.72   -4.82   0.000   0.200   0.000    0.00
  21.150   16.18  -16.34   -5.26   0.000   0.200   0.000    0.00
  21.200   17.13  -15.50   -5.18   0.000   0.200   0.000    0.00
  21.250   17.22  -16.07   -3.61   0.000   0.200   0.000    0.00
  21.300   16.54  -17.88   -3.80   0.000   0.200   0.000    0.00
  21.350   16.82  -16.96   -3.70   0.000   0.200   0.000    0.00
  21.400   16.74  -16.65   -3.11   0.000   0.200   0.000    0.00
  21.450   16.65  -22.51   -2.61   0.000   0.200   0.000    0.00
  21.500   16.48  -26.29   -1.73   0.000   0.200   0.000    0.00
  21.550   17.37  -25.20   -1.20   0.000   0.200   0.000    0.00
  21.600   18.64  -25.27   -2.65   0.000   0.200   0.000    0.00
  21.650   17.57  -23.17   -1.82   0.000   0.200   0.000    0.00
  21.700   17.18  -21.07   -0.08   0.000   0.200   0.000    0.00
  21.750   17.97  -19.17    0.41   0.000   0.200   0.000    0.00
  21.800   18.23  -18.75   -0.13   0.000   0.200   0.000    0.00
  21.850   18.15  -17.20   -1.07   0.000   0.200   0.000    0.00
  21.900   18.45  -17.96   -1.69   0.000   0.200   0.000    0.00
  21.950   18.94  -20.32   -0.49   0.000   0.200   0.000    0.00
  22.000   19.52  -23.44   -1.21   0.000   0.200   0.000    0.00
  22.050   19.55  -21.06   -1.27   0.000   0.200   0.000    0.00
  22.100   18.24  -24.18   -0.62   0.000   0.200   0.000    0.00
  22.150   17.73  -22.43   -0.02   0.000   0.200   0.000    0.00
  22.200   18.68  -21.42   -0.94   0.000   0.200   0.000    0.00
  22.250   17.97  -23.81   -2.38   0.000   0.200   0.000    0.00
  22.300   18.18  -20.31   -1.26   0.000   0.200   0.000    0.00
  22.350   18.53  -18.29   -0.81   0.000   0.200   0.000    0.00