! This hub-height wind-speed file was generated by TurbSim (v1.07.00a-bjj, 9-Jul-2014) on 09-Jul-2014 at 11:27:21.
!
! The requested statistics for this data were:
!    Mean Total Wind Speed =    7.351 m/s
!    Turbulence Intensity  =   24.243%
!
!   Time  HorSpd  WndDir  VerSpd  HorShr  VerShr  LnVShr  GstSpd
!  (sec)   (m/s)   (deg)   (m/s)     (-)     (-)     (-)   (m/s)
   0.000   11.71    4.29    2.20   0.000   0.200   0.000    0.00
   0.050   11.35    3.97    2.12   0.000   0.200   0.000    0.00
   0.100   10.95    1.65    2.48   0.000   0.200   0.000    0.00
   0.150   11.52    1.13    2.24   0.000   0.200   0.000    0.00
   0.200   11.59    0.69    2.45   0.000   0.200   0.000    0.00
   0.250   11.26    2.19    2.73   0.000   0.200   0.000    0.00
   0.300   10.92    5.22    2.18   0.000   0.200   0.000    0.00
   0.350   10.75    4.12    1.56   0.000   0.200   0.000    0.00
   0.400   10.95    3.79    1.75   0.000   0.200   0.000    0.00
   0.450   10.82    1.39    1.51   0.000   0.200   0.000    0.00
   0.500   10.79   -1.86    1.59   0.000   0.200   0.000    0.00
   0.550   10.74   -1.54    1.53   0.000   0.200   0.000    0.00
   0.600    9.97   -1.72    1.84   0.000   0.200   0.000    0.00
   0.650   10.03   -5.89    1.72   0.000   0.200   0.000    0.00
   0.700   10.24   -6.65    1.39   0.000   0.200   0.000    0.00
   0.750   10.39   -5.48    1.62   0.000   0.200   0.000    0.00
   0.800   10.39   -5.98    1.97   0.000   0.200   0.000    0.00
   0.850   10.26   -4.03    1.88   0.000   0.200   0.000    0.00
   0.900   10.48   -2.42    1.83   0.000   0.200   0.000    0.00
   0.950   10.30   -2.26    2.05   0.000   0.200   0.000    0.00
   1.000   10.17   -2.98    1.92   0.000   0.200   0.000    0.00
   1.050   10.25   -7.70    2.17   0.000   0.200   0.000    0.00
   1.100   10.21   -4.98    2.00   0.000   0.200   0.000    0.00
   1.150   10.32   -8.09    1.78   0.000   0.200   0.000    0.00
   1.200   10.15   -9.75    2.19   0.000   0.200   0.000    0.00
   1.250   10.16   -6.47    2.03   0.000   0.200   0.000    0.00
   1.300   10.04   -6.11    2.26   0.000   0.200   0.000    0.00
   1.350   10.09   -6.33    1.59   0.000   0.200   0.000    0.00
   1.400   10.01   -7.29    1.71   0.000   0.200   0.000    0.00
   1.450   10.40   -7.38    1.85   0.000   0.200   0.000    0.00
   1.500   10.13   -7.81    2.06   0.000   0.200   0.000    0.00
   1.550    9.59   -5.52    2.81   0.000   0.200   0.000    0.00
   1.600    9.32   -1.48    2.76   0.000   0.200   0.000    0.00
   1.650    9.19   -0.90    2.73   0.000   0.200   0.000    0.00
   1.700    9.05   -2.31    2.48   0.000   0.200   0.000    0.00
   1.750    9.02   -2.81    2.89   0.000   0.200   0.000    0.00
   1.800    9.48   -4.54    4.22   0.000   0.200   0.000    0.00
   1.850    9.78   -1.75    4.10   0.000   0.200   0.000    0.00
   1.900    9.79   -2.10    3.94   0.000   0.200   0.000    0.00
   1.950    9.89   -2.80    3.48   0.000   0.200   0.000    0.00
   2.000    9.86    0.99    3.43   0.000   0.200   0.000    0.00
   2.050    9.21   -2.65    3.44   0.000   0.200   0.000    0.00
   2.100    9.15   -3.72    3.41   0.000   0.200   0.000    0.00
   2.150    9.16   -2.04    2.93   0.000   0.200   0.000    0.00
   2.200    8.91   -4.31    3.21   0.000   0.200   0.000    0.00
   2.250    9.14   -6.66    3.40   0.000   0.200   0.000    0.00
   2.300    9.08   -5.45    3.34   0.000   0.200   0.000    0.00
   2.350    8.98   -2.66    2.95   0.000   0.200   0.000    0.00
   2.400    8.78   -2.56    2.85   0.000   0.200   0.000    0.00
   2.450    8.49   -2.25    3.37   0.000   0.200   0.000    0.00
   2.500    8.40   -6.75    3.38   0.000   0.200   0.000    0.00
   2.550    8.57   -8.24    3.34   0.000   0.200   0.000    0.00
   2.600    8.63   -7.21    3.84   0.000   0.200   0.000    0.00
   2.650    8.94   -3.79    3.59   0.000   0.200   0.000    0.00
   2.700    8.81   -2.66    3.84   0.000   0.200   0.000    0.00
   2.750    8.86   -3.52    3.68   0.000   0.200   0.000    0.00
   2.800    9.15   -3.14    3.37   0.000   0.200   0.000    0.00
   2.850    8.93   -1.85    3.33   0.000   0.200   0.000    0.00
   2.900    8.93   -0.61    3.10   0.000   0.200   0.000    0.00
   2.950    9.09   -3.27    2.75   0.000   0.200   0.000    0.00
   3.000    8.86   -2.68    2.71   0.000   0.200   0.000    0.00
   3.050    8.70   -1.15    2.49   0.000   0.200   0.000    0.00
   3.100    8.79   -2.22    3.23   0.000   0.200   0.000    0.00
   3.150    8.49   -4.58    3.38   0.000   0.200   0.000    0.00
   3.200    7.92   -4.97    3.19   0.000   0.200   0.000    0.00
   3.250    8.38   -2.52    3.17   0.000   0.200   0.000    0.00
   3.300    9.01    3.43    2.94   0.000   0.200   0.000    0.00
   3.350    8.98    3.59    2.86   0.000   0.200   0.000    0.00
   3.400    8.91   -0.05    3.31   0.000   0.200   0.000    0.00
   3.450    9.14    0.33    3.02   0.000   0.200   0.000    0.00
   3.500    9.27    2.79    2.96   0.000   0.200   0.000    0.00
   3.550    8.86    3.60    3.28   0.000   0.200   0.000    0.00
   3.600    9.60    5.59    2.81   0.000   0.200   0.000    0.00
   3.650    8.64    3.85    2.49   0.000   0.200   0.000    0.00
   3.700    8.48    0.04    2.40   0.000   0.200   0.000    0.00
   3.750    8.68    5.79    2.54   0.000   0.200   0.000    0.00
   3.800    8.97    8.14    2.69   0.000   0.200   0.000    0.00
   3.850    8.97    8.74    3.36   0.000   0.200   0.000    0.00
   3.900    8.83    6.17    3.47   0.000   0.200   0.000    0.00
   3.950    8.95    3.67    3.51   0.000   0.200   0.000    0.00
   4.000    8.97    6.42    3.25   0.000   0.200   0.000    0.00
   4.050    8.84    2.74    2.86   0.000   0.200   0.000    0.00
   4.100    9.11    3.00    2.66   0.000   0.200   0.000    0.00
   4.150    9.07    0.32    2.33   0.000   0.200   0.000    0.00
   4.200    9.00    1.14    2.13   0.000   0.200   0.000    0.00
   4.250    8.65   -2.05    2.29   0.000   0.200   0.000    0.00
   4.300    8.44   -1.78    2.41   0.000   0.200   0.000    0.00
   4.350    8.58   -3.37    2.48   0.000   0.200   0.000    0.00
   4.400    8.56   -3.17    2.52   0.000   0.200   0.000    0.00
   4.450    8.19   -3.96    2.85   0.000   0.200   0.000    0.00
   4.500    7.85   -7.00    3.09   0.000   0.200   0.000    0.00
   4.550    8.18   -8.73    2.94   0.000   0.200   0.000    0.00
   4.600    8.37   -4.74    2.76   0.000   0.200   0.000    0.00
   4.650    8.25   -4.79    2.90   0.000   0.200   0.000    0.00
   4.700    8.22   -5.90    2.71   0.000   0.200   0.000    0.00
   4.750    8.26   -4.96    2.79   0.000   0.200   0.000    0.00
   4.800    8.50   -6.24    2.82   0.000   0.200   0.000    0.00
   4.850    8.57   -9.04    2.81   0.000   0.200   0.000    0.00
   4.900    8.94   -6.94    2.86   0.000   0.200   0.000    0.00
   4.950    8.88   -9.51    2.76   0.000   0.200   0.000    0.00
   5.000    9.01  -11.74    2.61   0.000   0.200   0.000    0.00
   5.050    9.00   -7.15    2.41   0.000   0.200   0.000    0.00
   5.100    9.23   -7.88    2.34   0.000   0.200   0.000    0.00
   5.150    9.41   -3.10    2.38   0.000   0.200   0.000    0.00
   5.200    9.46   -5.78    2.86   0.000   0.200   0.000    0.00
   5.250    9.53   -4.07    3.11   0.000   0.200   0.000    0.00
   5.300    9.33   -3.39    2.93   0.000   0.200   0.000    0.00
   5.350    9.22   -4.34    2.69   0.000   0.200   0.000    0.00
   5.400    9.05   -4.78    2.75   0.000   0.200   0.000    0.00
   5.450    8.90   -3.95    3.10   0.000   0.200   0.000    0.00
   5.500    8.92   -5.80    2.86   0.000   0.200   0.000    0.00
   5.550    8.72   -7.71    2.83   0.000   0.200   0.000    0.00
   5.600    8.85   -8.46    3.04   0.000   0.200   0.000    0.00
   5.650    8.94  -11.04    3.11   0.000   0.200   0.000    0.00
   5.700    9.07  -15.03    2.85   0.000   0.200   0.000    0.00
   5.750    9.08  -10.97    2.84   0.000   0.200   0.000    0.00
   5.800    9.40   -6.69    2.30   0.000   0.200   0.000    0.00
   5.850    9.11   -5.88    2.59   0.000   0.200   0.000    0.00
   5.900    9.07   -5.36    2.52   0.000   0.200   0.000    0.00
   5.950    9.23   -7.83    2.47   0.000   0.200   0.000    0.00
   6.000    9.14   -8.94    2.88   0.000   0.200   0.000    0.00
   6.050    9.53   -8.18    2.79   0.000   0.200   0.000    0.00
   6.100    9.38   -7.94    3.06   0.000   0.200   0.000    0.00
   6.150    9.48   -9.03    3.61   0.000   0.200   0.000    0.00
   6.200    9.38  -10.86    3.87   0.000   0.200   0.000    0.00
   6.250    9.37  -13.70    3.57   0.000   0.200   0.000    0.00
   6.300    9.29  -12.38    3.24   0.000   0.200   0.000    0.00
   6.350    9.36  -11.96    3.53   0.000   0.200   0.000    0.00
   6.400    9.86  -10.29    3.81   0.000   0.200   0.000    0.00
   6.450   10.34  -13.00    4.09   0.000   0.200   0.000    0.00
   6.500    9.94  -15.34    3.41   0.000   0.200   0.000    0.00
   6.550   10.56  -15.36    3.76   0.000   0.200   0.000    0.00
   6.600   10.47  -11.65    3.89   0.000   0.200   0.000    0.00
   6.650    9.91  -10.76    3.96   0.000   0.200   0.000    0.00
   6.700   10.27   -6.79    4.14   0.000   0.200   0.000    0.00
   6.750    9.89   -6.61    4.70   0.000   0.200   0.000    0.00
   6.800   10.13   -5.59    4.05   0.000   0.200   0.000    0.00
   6.850    9.96   -5.28    4.45   0.000   0.200   0.000    0.00
   6.900    9.60   -3.89    4.39   0.000   0.200   0.000    0.00
   6.950    9.25   -6.16    4.64   0.000   0.200   0.000    0.00
   7.000    9.43   -6.03    4.53   0.000   0.200   0.000    0.00
   7.050   10.17   -4.81    4.37   0.000   0.200   0.000    0.00
   7.100   10.47   -3.34    4.49   0.000   0.200   0.000    0.00
   7.150   10.30   -3.30    4.46   0.000   0.200   0.000    0.00
   7.200   10.18   -5.90    4.65   0.000   0.200   0.000    0.00
   7.250   10.75   -5.33    4.90   0.000   0.200   0.000    0.00
   7.300   11.07   -5.06    5.38   0.000   0.200   0.000    0.00
   7.350   10.83   -4.73    6.08   0.000   0.200   0.000    0.00
   7.400   10.56   -9.54    6.07   0.000   0.200   0.000    0.00
   7.450   10.37  -11.88    5.72   0.000   0.200   0.000    0.00
   7.500   10.64  -11.04    5.57   0.000   0.200   0.000    0.00
   7.550   10.79  -12.74    5.36   0.000   0.200   0.000    0.00
   7.600   10.89  -12.56    5.50   0.000   0.200   0.000    0.00
   7.650   10.51   -9.73    5.57   0.000   0.200   0.000    0.00
   7.700   10.42   -9.56    5.52   0.000   0.200   0.000    0.00
   7.750    9.80   -8.86    5.12   0.000   0.200   0.000    0.00
   7.800    9.67   -8.57    5.57   0.000   0.200   0.000    0.00
   7.850    9.74  -10.07    5.91   0.000   0.200   0.000    0.00
   7.900    9.71   -8.35    6.34   0.000   0.200   0.000    0.00
   7.950    9.81   -6.63    5.62   0.000   0.200   0.000    0.00
   8.000    9.65   -5.48    5.80   0.000   0.200   0.000    0.00
   8.050    9.28   -3.44    5.49   0.000   0.200   0.000    0.00
   8.100    9.50   -4.26    5.54   0.000   0.200   0.000    0.00
   8.150    9.91   -3.45    5.69   0.000   0.200   0.000    0.00
   8.200   10.06   -2.40    5.53   0.000   0.200   0.000    0.00
   8.250   10.48   -1.19    5.84   0.000   0.200   0.000    0.00
   8.300   10.37    2.11    5.92   0.000   0.200   0.000    0.00
   8.350   10.01    5.25    5.99   0.000   0.200   0.000    0.00
   8.400   10.25    4.58    5.92   0.000   0.200   0.000    0.00
   8.450   10.12    3.46    6.07   0.000   0.200   0.000    0.00
   8.500   10.09    1.25    5.96   0.000   0.200   0.000    0.00
   8.550    9.89    0.11    5.93   0.000   0.200   0.000    0.00
   8.600    9.75    0.00    5.54   0.000   0.200   0.000    0.00
   8.650   10.22   -1.55    5.35   0.000   0.200   0.000    0.00
   8.700   10.30    2.13    5.58   0.000   0.200   0.000    0.00
   8.750   10.27    2.64    5.34   0.000   0.200   0.000    0.00
   8.800    9.89    1.22    5.07   0.000   0.200   0.000    0.00
   8.850    9.86   -2.40    4.98   0.000   0.200   0.000    0.00
   8.900    9.59   -5.24    4.78   0.000   0.200   0.000    0.00
   8.950    9.17   -5.00    4.74   0.000   0.200   0.000    0.00
   9.000    9.49   -0.29    4.34   0.000   0.200   0.000    0.00
   9.050    9.40    1.09    4.05   0.000   0.200   0.000    0.00
   9.100    9.40    3.18    4.36   0.000   0.200   0.000    0.00
   9.150    9.62    3.04    4.83   0.000   0.200   0.000    0.00
   9.200    9.60    1.37    4.77   0.000   0.200   0.000    0.00
   9.250    9.91    0.16    4.77   0.000   0.200   0.000    0.00
   9.300   10.04   -0.42    4.76   0.000   0.200   0.000    0.00
   9.350   10.21    0.94    5.06   0.000   0.200   0.000    0.00
   9.400   10.02    2.83    4.74   0.000   0.200   0.000    0.00
   9.450   10.36    4.17    4.84   0.000   0.200   0.000    0.00
   9.500   10.82    4.10    5.00   0.000   0.200   0.000    0.00
   9.550   10.60    4.17    4.91   0.000   0.200   0.000    0.00
   9.600   10.21    5.80    4.84   0.000   0.200   0.000    0.00
   9.650   10.66    4.33    4.92   0.000   0.200   0.000    0.00
   9.700   10.68    5.15    4.71   0.000   0.200   0.000    0.00
   9.750   10.90    2.42    4.58   0.000   0.200   0.000    0.00
   9.800   10.53    4.69    4.60   0.000   0.200   0.000    0.00
   9.850   10.79    6.09    4.14   0.000   0.200   0.000    0.00
   9.900   10.86    3.98    4.13   0.000   0.200   0.000    0.00
   9.950   10.81    3.20    4.56   0.000   0.200   0.000    0.00
  10.000   10.71    2.07    4.55   0.000   0.200   0.000    0.00
  10.050   10.86    3.93    4.59   0.000   0.200   0.000    0.00
  10.100   11.06    4.97    4.55   0.000   0.200   0.000    0.00
  10.150   10.80    4.10    4.46   0.000   0.200   0.000    0.00
  10.200   11.13    3.33    3.98   0.000   0.200   0.000    0.00
  10.250   11.05    1.37    3.98   0.000   0.200   0.000    0.00
  10.300   11.08    1.41    3.97   0.000   0.200   0.000    0.00
  10.350   10.66   -1.42    4.04   0.000   0.200   0.000    0.00
  10.400   10.77   -2.45    4.35   0.000   0.200   0.000    0.00
  10.450   10.99   -4.40    3.87   0.000   0.200   0.000    0.00
  10.500   10.51   -7.18    4.09   0.000   0.200   0.000    0.00
  10.550   10.91   -5.36    3.68   0.000   0.200   0.000    0.00
  10.600   10.85   -5.52    3.55   0.000   0.200   0.000    0.00
  10.650   10.58   -7.16    3.51   0.000   0.200   0.000    0.00
  10.700   11.01   -6.52    3.50   0.000   0.200   0.000    0.00
  10.750   11.15   -3.79    3.09   0.000   0.200   0.000    0.00
  10.800   10.62   -4.86    3.29   0.000   0.200   0.000    0.00
  10.850   10.90   -3.75    3.41   0.000   0.200   0.000    0.00
  10.900   10.66   -5.68    3.18   0.000   0.200   0.000    0.00
  10.950   10.75   -6.33    3.70   0.000   0.200   0.000    0.00
  11.000   10.43   -5.16    4.58   0.000   0.200   0.000    0.00
  11.050   10.61   -4.81    4.58   0.000   0.200   0.000    0.00
  11.100   10.95   -5.77    4.82   0.000   0.200   0.000    0.00
  11.150   10.89   -4.63    4.45   0.000   0.200   0.000    0.00
  11.200   11.24   -5.51    4.79   0.000   0.200   0.000    0.00
  11.250   11.54   -5.40    4.70   0.000   0.200   0.000    0.00
  11.300   10.99   -2.32    5.14   0.000   0.200   0.000    0.00
  11.350   11.06   -0.72    4.78   0.000   0.200   0.000    0.00
  11.400   11.01   -3.20    4.63   0.000   0.200   0.000    0.00
  11.450   11.35   -3.23    5.25   0.000   0.200   0.000    0.00
  11.500   11.49   -4.51    5.42   0.000   0.200   0.000    0.00
  11.550   11.39   -8.28    4.87   0.000   0.200   0.000    0.00
  11.600   11.64   -6.72    4.78   0.000   0.200   0.000    0.00
  11.650   11.62   -7.19    5.11   0.000   0.200   0.000    0.00
  11.700   11.34   -6.54    4.92   0.000   0.200   0.000    0.00
  11.750   11.05   -4.96    5.03   0.000   0.200   0.000    0.00
  11.800   11.16   -3.85    4.77   0.000   0.200   0.000    0.00
  11.850   10.83   -4.76    4.52   0.000   0.200   0.000    0.00
  11.900   11.46   -5.91    4.75   0.000   0.200   0.000    0.00
  11.950   11.12   -5.45    4.61   0.000   0.200   0.000    0.00
  12.000   11.50   -5.87    4.52   0.000   0.200   0.000    0.00
  12.050   11.48   -6.56    3.75   0.000   0.200   0.000    0.00
  12.100   11.27   -9.76    3.56   0.000   0.200   0.000    0.00
  12.150   10.73   -8.90    4.47   0.000   0.200   0.000    0.00
  12.200   10.63   -8.16    3.88   0.000   0.200   0.000    0.00
  12.250   11.33   -8.39    3.87   0.000   0.200   0.000    0.00
  12.300   11.65   -8.09    3.75   0.000   0.200   0.000    0.00
  12.350   11.52   -5.58    3.22   0.000   0.200   0.000    0.00
  12.400   11.42   -9.01    2.70   0.000   0.200   0.000    0.00
  12.450   11.28   -6.25    3.63   0.000   0.200   0.000    0.00
  12.500   11.58   -4.76    3.31   0.000   0.200   0.000    0.00
  12.550   11.54   -3.79    2.86   0.000   0.200   0.000    0.00
  12.600   12.15   -3.80    2.92   0.000   0.200   0.000    0.00
  12.650   12.43   -4.36    2.91   0.000   0.200   0.000    0.00
  12.700   11.82   -2.95    2.31   0.000   0.200   0.000    0.00
  12.750   11.42   -4.18    2.13   0.000   0.200   0.000    0.00
  12.800   11.27   -4.50    1.75   0.000   0.200   0.000    0.00
  12.850   11.16   -4.04    1.45   0.000   0.200   0.000    0.00
  12.900   11.88   -5.03    1.08   0.000   0.200   0.000    0.00
  12.950   11.79   -4.45    1.59   0.000   0.200   0.000    0.00
  13.000   11.45   -2.05    1.65   0.000   0.200   0.000    0.00
  13.050   12.00    1.01    1.97   0.000   0.200   0.000    0.00
  13.100   11.93    0.51    2.23   0.000   0.200   0.000    0.00
  13.150   11.60    1.63    2.51   0.000   0.200   0.000    0.00
  13.200   11.33    0.24    2.39   0.000   0.200   0.000    0.00
  13.250   11.27    0.94    2.15   0.000   0.200   0.000    0.00
  13.300   10.88    1.94    2.54   0.000   0.200   0.000    0.00
  13.350   10.81   -2.01    2.69   0.000   0.200   0.000    0.00
  13.400   11.39   -1.48    2.14   0.000   0.200   0.000    0.00
  13.450   11.27   -1.52    2.00   0.000   0.200   0.000    0.00
  13.500   11.69   -1.51    2.05   0.000   0.200   0.000    0.00
  13.550   11.71   -0.95    1.84   0.000   0.200   0.000    0.00
  13.600   11.33   -1.83    2.05   0.000   0.200   0.000    0.00
  13.650   11.43   -4.25    1.73   0.000   0.200   0.000    0.00
  13.700   11.61   -5.29    1.76   0.000   0.200   0.000    0.00
  13.750   11.32   -6.05    2.61   0.000   0.200   0.000    0.00
  13.800   11.60   -3.72    2.85   0.000   0.200   0.000    0.00
  13.850   11.58   -1.81    2.67   0.000   0.200   0.000    0.00
  13.900   11.27   -1.06    2.64   0.000   0.200   0.000    0.00
  13.950   11.17   -2.30    3.41   0.000   0.200   0.000    0.00
  14.000   11.06   -2.28    3.79   0.000   0.200   0.000    0.00
  14.050   11.14   -2.84    4.05   0.000   0.200   0.000    0.00
  14.100   11.08   -0.17    3.58   0.000   0.200   0.000    0.00
  14.150   11.42    1.37    3.69   0.000   0.200   0.000    0.00
  14.200   11.37    2.84    3.56   0.000   0.200   0.000    0.00
  14.250   11.36    4.75    3.86   0.000   0.200   0.000    0.00
  14.300   10.90    2.31    3.27   0.000   0.200   0.000    0.00
  14.350   10.93    0.44    3.58   0.000   0.200   0.000    0.00
  14.400   10.95   -2.88    3.75   0.000   0.200   0.000    0.00
  14.450   11.19    0.51    3.22   0.000   0.200   0.000    0.00
  14.500   10.55   -1.04    3.08   0.000   0.200   0.000    0.00
  14.550   10.04   -2.72    2.70   0.000   0.200   0.000    0.00
  14.600    9.69   -1.69    2.64   0.000   0.200   0.000    0.00
  14.650   10.25   -3.46    2.87   0.000   0.200   0.000    0.00
  14.700   10.40   -0.13    2.92   0.000   0.200   0.000    0.00
  14.750   10.34   -0.17    2.75   0.000   0.200   0.000    0.00
  14.800   10.49   -0.13    2.96   0.000   0.200   0.000    0.00
  14.850   10.26    1.15    2.58   0.000   0.200   0.000    0.00
  14.900   10.15    2.26    2.67   0.000   0.200   0.000    0.00
  14.950   10.56    5.01    2.79   0.000   0.200   0.000    0.00
  15.000   10.89    5.24    2.07   0.000   0.200   0.000    0.00
  15.050   10.77    1.68    2.01   0.000   0.200   0.000    0.00
  15.100   10.93    3.73    1.81   0.000   0.200   0.000    0.00
  15.150   10.72    6.35    1.73   0.000   0.200   0.000    0.00
  15.200   10.52    9.14    2.42   0.000   0.200   0.000    0.00
  15.250   10.21   10.97    2.63   0.000   0.200   0.000    0.00
  15.300    9.97    9.44    3.64   0.000   0.200   0.000    0.00
  15.350    9.86   12.67    3.62   0.000   0.200   0.000    0.00
  15.400    9.85   12.84    3.21   0.000   0.200   0.000    0.00
  15.450    9.83   10.64    3.18   0.000   0.200   0.000    0.00
  15.500    9.91    9.07    2.83   0.000   0.200   0.000    0.00
  15.550   10.11    7.88    3.17   0.000   0.200   0.000    0.00
  15.600   10.18    5.33    3.55   0.000   0.200   0.000    0.00
  15.650   10.44    3.82    3.21   0.000   0.200   0.000    0.00
  15.700   10.25    6.93    2.87   0.000   0.200   0.000    0.00
  15.750    9.97    6.16    2.65   0.000   0.200   0.000    0.00
  15.800   10.47    8.75    2.52   0.000   0.200   0.000    0.00
  15.850   10.31   10.05    2.46   0.000   0.200   0.000    0.00
  15.900   10.56   12.43    2.72   0.000   0.200   0.000    0.00
  15.950   10.33    8.83    2.12   0.000   0.200   0.000    0.00
  16.000    9.64   10.11    1.50   0.000   0.200   0.000    0.00
  16.050    9.76    8.76    0.74   0.000   0.200   0.000    0.00
  16.100   10.35    8.03    0.49   0.000   0.200   0.000    0.00
  16.150   10.44   10.32    0.72   0.000   0.200   0.000    0.00
  16.200   10.10   11.93    0.41   0.000   0.200   0.000    0.00
  16.250   10.24   12.10    0.04   0.000   0.200   0.000    0.00
  16.300   10.14   14.23    0.58   0.000   0.200   0.000    0.00
  16.350   10.26   14.24    1.54   0.000   0.200   0.000    0.00
  16.400   10.48   13.81    1.15   0.000   0.200   0.000    0.00
  16.450   10.38   13.98    1.17   0.000   0.200   0.000    0.00
  16.500   10.33   18.20    0.53   0.000   0.200   0.000    0.00
  16.550    9.86   19.48    0.69   0.000   0.200   0.000    0.00
  16.600    9.83   14.05    0.72   0.000   0.200   0.000    0.00
  16.650    9.84   11.88    0.25   0.000   0.200   0.000    0.00
  16.700   10.03   13.05    0.16   0.000   0.200   0.000    0.00
  16.750    9.98   15.81    0.19   0.000   0.200   0.000    0.00
  16.800    9.52   14.60    0.78   0.000   0.200   0.000    0.00
  16.850    9.15   13.84    0.87   0.000   0.200   0.000    0.00
  16.900    9.90    9.12    1.13   0.000   0.200   0.000    0.00
  16.950   10.29    7.28    1.39   0.000   0.200   0.000    0.00
  17.000   10.01    4.84    1.42   0.000   0.200   0.000    0.00
  17.050    9.50    5.64    1.64   0.000   0.200   0.000    0.00
  17.100    9.48    9.02    1.85   0.000   0.200   0.000    0.00
  17.150    9.64    8.48    1.77   0.000   0.200   0.000    0.00
  17.200    9.62    7.80    1.82   0.000   0.200   0.000    0.00
  17.250    9.65    3.56    1.92   0.000   0.200   0.000    0.00
  17.300   10.02    4.48    1.15   0.000   0.200   0.000    0.00
  17.350   10.42    3.52    1.35   0.000   0.200   0.000    0.00
  17.400   10.71    5.08    0.75   0.000   0.200   0.000    0.00
  17.450   10.79    8.88    0.65   0.000   0.200   0.000    0.00
  17.500   10.23    5.42    1.30   0.000   0.200   0.000    0.00
  17.550   10.24   -0.14    1.64   0.000   0.200   0.000    0.00
  17.600   10.61   -0.79    2.47   0.000   0.200   0.000    0.00
  17.650   10.02   -2.24    2.41   0.000   0.200   0.000    0.00
  17.700    9.77   -2.31    2.03   0.000   0.200   0.000    0.00
  17.750    9.79   -1.70    2.45   0.000   0.200   0.000    0.00
  17.800   10.74   -1.80    2.11   0.000   0.200   0.000    0.00
  17.850   11.07   -4.14    1.72   0.000   0.200   0.000    0.00
  17.900   11.08   -4.79    1.89   0.000   0.200   0.000    0.00
  17.950   11.12   -7.74    1.85   0.000   0.200   0.000    0.00
  18.000   10.88   -7.38    1.56   0.000   0.200   0.000    0.00
  18.050   11.22   -8.58    1.11   0.000   0.200   0.000    0.00
  18.100   10.93  -10.72    0.94   0.000   0.200   0.000    0.00
  18.150   10.91  -10.73    0.91   0.000   0.200   0.000    0.00
  18.200   10.66   -8.54    0.30   0.000   0.200   0.000    0.00
  18.250   10.95   -8.45    0.31   0.000   0.200   0.000    0.00
  18.300   10.79   -7.68    0.53   0.000   0.200   0.000    0.00
  18.350   10.17   -6.64    0.62   0.000   0.200   0.000    0.00
  18.400    9.54  -11.19    0.65   0.000   0.200   0.000    0.00
  18.450    9.51   -9.83    0.52   0.000   0.200   0.000    0.00
  18.500    9.46   -6.54    0.16   0.000   0.200   0.000    0.00
  18.550    9.46   -7.21    0.61   0.000   0.200   0.000    0.00
  18.600    9.49   -8.31    0.39   0.000   0.200   0.000    0.00
  18.650   10.18   -5.63    0.38   0.000   0.200   0.000    0.00
  18.700   10.29   -6.41    0.56   0.000   0.200   0.000    0.00
  18.750    9.92   -7.77    0.78   0.000   0.200   0.000    0.00
  18.800    9.94   -8.56    0.76   0.000   0.200   0.000    0.00
  18.850    9.56   -9.38    0.90   0.000   0.200   0.000    0.00
  18.900    9.01   -8.90    0.80   0.000   0.200   0.000    0.00
  18.950    8.91   -7.73    0.51   0.000   0.200   0.000    0.00
  19.000    8.78   -5.41    0.40   0.000   0.200   0.000    0.00
  19.050    8.87   -7.44   -0.30   0.000   0.200   0.000    0.00
  19.100    8.68   -9.89   -0.64   0.000   0.200   0.000    0.00
  19.150    8.42   -9.31   -0.17   0.000   0.200   0.000    0.00
  19.200    8.08  -10.18   -0.14   0.000   0.200   0.000    0.00
  19.250    8.32   -8.32   -0.17   0.000   0.200   0.000    0.00
  19.300    8.70   -7.07    0.00   0.000   0.200   0.000    0.00
  19.350    9.10   -5.45    0.34   0.000   0.200   0.000    0.00
  19.400    9.21   -4.89   -0.04   0.000   0.200   0.000    0.00
  19.450    8.96   -2.85   -0.04   0.000   0.200   0.000    0.00
  19.500    9.01   -2.32   -0.32   0.000   0.200   0.000    0.00
  19.550    8.86    0.56   -0.84   0.000   0.200   0.000    0.00
  19.600    8.80    2.45   -1.08   0.000   0.200   0.000    0.00
  19.650    8.47    0.02   -0.57   0.000   0.200   0.000    0.00
  19.700    8.80   -2.98   -0.72   0.000   0.200   0.000    0.00
  19.750    8.85   -3.60   -0.77   0.000   0.200   0.000    0.00
  19.800    8.52   -6.98   -0.64   0.000   0.200   0.000    0.00
  19.850    9.03   -4.62   -0.84   0.000   0.200   0.000    0.00
  19.900    8.82   -1.65   -0.82   0.000   0.200   0.000    0.00
  19.950    9.01   -2.60   -1.37   0.000   0.200   0.000    0.00
  20.000    8.91   -4.62   -1.13   0.000   0.200   0.000    0.00
  20.050    8.69   -6.00   -1.74   0.000   0.200   0.000    0.00
  20.100    8.56   -3.06   -1.86   0.000   0.200   0.000    0.00
  20.150    8.26   -2.70   -1.64   0.000   0.200   0.000    0.00
  20.200    8.13   -5.79   -1.50   0.000   0.200   0.000    0.00
  20.250    8.24   -4.63   -1.46   0.000   0.200   0.000    0.00
  20.300    8.39   -4.77   -1.45   0.000   0.200   0.000    0.00
  20.350    8.04   -1.57   -1.51   0.000   0.200   0.000    0.00
  20.400    7.73   -5.19   -1.11   0.000   0.200   0.000    0.00
  20.450    7.78   -9.42   -1.00   0.000   0.200   0.000    0.00
  20.500    7.97  -13.69   -1.21   0.000   0.200   0.000    0.00
  20.550    7.77  -14.87   -1.28   0.000   0.200   0.000    0.00
  20.600    7.23  -11.44   -1.27   0.000   0.200   0.000    0.00
  20.650    7.72  -12.13   -1.50   0.000   0.200   0.000    0.00
  20.700    7.42  -13.18   -1.78   0.000   0.200   0.000    0.00
  20.750    7.53  -14.55   -1.71   0.000   0.200   0.000    0.00
  20.800    7.61  -17.70   -1.91   0.000   0.200   0.000    0.00
  20.850    7.57  -13.00   -1.85   0.000   0.200   0.000    0.00
  20.900    7.62  -13.47   -1.82   0.000   0.200   0.000    0.00
  20.950    7.41  -12.49   -2.16   0.000   0.200   0.000    0.00
  21.000    7.44  -10.20   -2.98   0.000   0.200   0.000    0.00
  21.050    7.50   -7.94   -3.12   0.000   0.200   0.000    0.00
  21.100    7.56  -12.67   -2.74   0.000   0.200   0.000    0.00
  21.150    6.89  -11.77   -2.89   0.000   0.200   0.000    0.00
  21.200    7.28  -10.65   -2.90   0.000   0.200   0.000    0.00
  21.250    7.36  -11.19   -2.21   0.000   0.200   0.000    0.00
  21.300    7.05  -13.37   -2.27   0.000   0.200   0.000    0.00
  21.350    7.14  -12.38   -2.24   0.000   0.200   0.000    0.00
  21.400    7.10  -12.12   -1.98   0.000   0.200   0.000    0.00
  21.450    7.13  -18.29   -1.75   0.000   0.200   0.000    0.00
  21.500    7.12  -22.25   -1.34   0.000   0.200   0.000    0.00
  21.550    7.50  -20.84   -1.15   0.000   0.200   0.000    0.00
  21.600    7.99  -20.73   -1.84   0.000   0.200   0.000    0.00
  21.650    7.50  -18.88   -1.45   0.000   0.200   0.000    0.00
  21.700    7.35  -16.73   -0.67   0.000   0.200   0.000    0.00
  21.750    7.68  -14.51   -0.48   0.000   0.200   0.000    0.00
  21.800    7.76  -14.08   -0.74   0.000   0.200   0.000    0.00
  21.850    7.65  -12.59   -1.16   0.000   0.200   0.000    0.00
  21.900    7.76  -13.38   -1.45   0.000   0.200   0.000    0.00
  21.950    8.04  -15.68   -0.94   0.000   0.200   0.000    0.00
  22.000    8.29  -18.90   -1.28   0.000   0.200   0.000    0.00
  22.050    8.25  -16.45   -1.31   0.000   0.200   0.000    0.00
  22.100    7.72  -20.14   -0.97   0.000   0.200   0.000    0.00
  22.150    7.47  -18.49   -0.69   0.000   0.200   0.000    0.00
  22.200    7.82  -17.25   -1.14   0.000   0.200   0.000    0.00
  22.250    7.47  -20.25   -1.75   0.000   0.200   0.000    0.00
  22.300    7.53  -16.40   -1.28   0.000   0.200   0.000    0.00
  22.350    7.65  -14.13   -1.10   0.000   0.200   0.000    0.00