
This hub-height turbulence-parameter file was generated by TurbSim (v1.05.01a, 25-Oct-2009) on 24-Jan-2012 at 13:01:32.

   Time      U       Uh       Ut        V        W        u'       v'       w'      u'w'     u'v'     v'w'     TKE      CTKE
   0.00   24.504   24.648   24.933    2.664    3.757    6.450   -1.632    1.599   10.312  -10.524   -2.609   23.410    7.482
   0.05   23.683   23.838   24.092    2.714    3.495    5.630   -1.439    1.408    7.929   -8.104   -2.027   17.875    5.759
   0.10   22.587   22.869   23.256    3.577    4.224    4.768   -0.400    2.215   10.562   -1.906   -0.885   13.901    5.385
   0.15   23.846   24.177   24.471    3.989    3.782    6.035   -0.212    1.660   10.020   -1.282   -0.353   19.613    5.054
   0.20   23.898   24.263   24.636    4.190    4.271    6.165   -0.024    2.140   13.194   -0.147   -0.051   21.291    6.597
   0.25   23.230   23.478   23.968    3.401    4.824    5.421   -0.685    2.760   14.963   -3.711   -1.889   18.737    7.766
   0.30   22.721   22.810   23.079    2.017    3.515    4.567   -1.959    1.521    6.946   -8.949   -2.980   13.507    5.857
   0.35   22.409   22.543   22.640    2.455    2.091    4.213   -1.474    0.123    0.516   -6.209   -0.181    9.969    3.116
   0.40   22.800   22.951   23.093    2.626    2.557    4.667   -1.373    0.550    2.569   -6.408   -0.756   11.984    3.472
   0.45   22.451   22.738   22.826    3.602    1.998    4.445   -0.351    0.009    0.041   -1.562   -0.003    9.940    0.781
   0.50   22.134   22.676   22.779    4.930    2.165    4.378    1.012    0.183    0.800    4.430    0.185   10.112    2.253
   0.55   22.079   22.588   22.678    4.770    2.018    4.283    0.864    0.043    0.185    3.700    0.037    9.547    1.852
   0.60   20.346   20.832   20.987    4.475    2.545    2.578    0.874    0.721    1.858    2.253    0.630    3.965    1.494
   0.65   20.130   21.030   21.153    6.088    2.273    2.621    2.500    0.445    1.166    6.553    1.112    6.659    3.374
   0.70   20.596   21.603   21.661    6.517    1.583    3.093    2.842   -0.289   -0.895    8.790   -0.823    8.864    4.437
   0.75   21.039   21.918   22.021    6.145    2.125    3.511    2.398    0.218    0.766    8.419    0.523    9.062    4.235
   0.80   20.967   21.900   22.090    6.325    2.891    3.537    2.588    0.985    3.483    9.153    2.548   10.089    5.060
   0.85   20.967   21.675   21.840    5.496    2.673    3.375    1.772    0.780    2.634    5.981    1.383    7.571    3.340
   0.90   21.664   22.228   22.381    4.974    2.615    3.964    1.136    0.670    2.656    4.504    0.761    8.726    2.642
   0.95   21.308   21.846   22.061    4.819    3.068    3.627    1.046    1.154    4.186    3.794    1.207    7.792    2.889
   1.00   21.064   21.660   21.835    5.047    2.759    3.400    1.313    0.864    2.938    4.463    1.134    7.015    2.731
   1.05   20.762   21.879   22.127    6.902    3.299    3.472    3.192    1.400    4.860   11.082    4.468   12.101    6.449
   1.10   21.087   21.882   22.077    5.845    2.928    3.576    2.095    1.018    3.640    7.490    2.133    9.104    4.298
   1.15   21.098   22.268   22.402    7.122    2.449    3.766    3.351    0.521    1.961   12.617    1.745   12.839    6.444
   1.20   20.536   21.905   22.156    7.622    3.324    3.377    3.940    1.433    4.841   13.306    5.647   14.491    7.622
   1.25   21.084   22.036   22.237    6.406    2.979    3.675    2.647    1.061    3.900    9.727    2.809   10.818    5.425
   1.30   20.911   21.808   22.085    6.191    3.484    3.511    2.466    1.582    5.554    8.659    3.901   10.456    5.501
   1.35   21.228   22.154   22.244    6.338    2.001    3.718    2.556    0.075    0.280    9.504    0.192   10.182    4.755
   1.40   21.013   22.041   22.154    6.652    2.239    3.582    2.902    0.326    1.169   10.395    0.947   10.680    5.252
   1.45   21.891   22.967   23.117    6.948    2.623    4.529    3.041    0.629    2.850   13.771    1.913   15.076    7.096
   1.50   21.322   22.421   22.627    6.932    3.053    4.005    3.124    1.106    4.430   12.513    3.455   13.513    6.858
   1.55   20.346   21.135   21.633    5.719    4.618    2.974    2.099    2.767    8.230    6.244    5.809   10.455    5.926
   1.60   20.185   20.604   21.084    4.133    4.476    2.529    0.565    2.664    6.738    1.429    1.505    6.906    3.525
   1.65   20.017   20.390   20.854    3.879    4.376    2.312    0.344    2.582    5.970    0.795    0.887    6.066    3.044
   1.70   19.726   20.193   20.546    4.321    3.789    2.051    0.830    2.016    4.136    1.703    1.673    4.481    2.388
   1.75   19.599   20.101   20.639    4.464    4.682    2.030    0.993    2.914    5.916    2.016    2.893    6.799    3.443
   1.80   20.242   20.918   22.302    5.274    7.734    3.067    1.679    5.887   18.057    5.149    9.883   23.444   10.610
   1.85   21.193   21.646   22.921    4.405    7.539    3.832    0.658    5.624   21.554    2.523    3.702   23.376   11.008
   1.90   21.237   21.717   22.872    4.542    7.177    3.867    0.785    5.258   20.335    3.036    4.127   21.610   10.485
   1.95   21.532   22.075   22.919    4.870    6.160    4.125    1.057    4.214   17.383    4.361    4.456   17.946    9.234
   2.00   21.763   22.029   22.845    3.419    6.048    4.091   -0.412    4.105   16.793   -1.687   -1.693   16.878    8.481
   2.05   20.098   20.589   21.422    4.471    5.914    2.628    0.913    4.099   10.773    2.401    3.744   12.272    5.827
   2.10   19.893   20.467   21.281    4.812    5.829    2.478    1.284    4.027    9.980    3.183    5.171   12.003    5.841
   2.15   20.140   20.581   21.125    4.238    4.763    2.528    0.676    2.952    7.464    1.709    1.996    7.782    3.956
   2.20   19.351   19.955   20.654    4.875    5.324    1.913    1.441    3.569    6.830    2.757    5.143    9.239    4.492
   2.25   19.557   20.397   21.199    5.791    5.775    2.314    2.307    3.987    9.225    5.339    9.198   13.286    7.039
   2.30   19.540   20.254   21.022    5.330    5.630    2.204    1.856    3.851    8.488    4.092    7.148   11.567    5.914
   2.35   19.624   20.096   20.645    4.326    4.731    2.035    0.853    2.963    6.030    1.736    2.527    6.824    3.382
   2.40   19.187   19.638   20.140    4.189    4.467    1.559    0.793    2.739    4.270    1.236    2.173    5.282    2.474
   2.45   18.422   18.833   19.639    3.911    5.567    0.857    0.653    3.906    3.347    0.559    2.549    8.207    2.122
   2.50   17.809   18.577   19.389    5.284    5.553    0.492    2.111    3.923    1.929    1.038    8.281   10.045    4.283
   2.55   17.980   18.909   19.683    5.853    5.467    0.750    2.642    3.814    2.861    1.981   10.077   11.045    5.330
   2.60   18.070   18.899   20.020    5.535    6.605    0.883    2.313    4.945    4.366    2.043   11.440   15.292    6.207
   2.65   19.044   19.587   20.512    4.580    6.090    1.628    1.203    4.363    7.102    1.958    5.250   11.567    4.523
   2.70   18.747   19.192   20.302    4.109    6.622    1.301    0.791    4.925    6.409    1.030    3.898   13.288    3.786
   2.75   18.746   19.258   20.248    4.410    6.252    1.321    1.088    4.553    6.014    1.437    4.953   11.828    3.961
   2.80   19.402   19.900   20.674    4.423    5.602    1.910    0.987    3.848    7.350    1.884    3.797    9.716    4.242
   2.85   18.947   19.335   20.094    3.851    5.471    1.353    0.503    3.766    5.096    0.680    1.894    8.134    2.739
   2.90   19.001   19.306   19.929    3.417    4.944    1.285    0.066    3.242    4.167    0.084    0.213    6.085    2.087
   2.95   19.152   19.651   20.092    4.400    4.184    1.537    1.008    2.458    3.777    1.549    2.477    4.709    2.388
   3.00   18.652   19.091   19.514    4.067    4.044    0.977    0.767    2.367    2.312    0.749    1.814    3.571    1.516
   3.05   18.385   18.709   19.034    3.469    3.500    0.563    0.224    1.856    1.046    0.126    0.415    1.906    0.566
   3.10   18.283   18.678   19.375    3.823    5.150    0.668    0.590    3.503    2.342    0.394    2.066    6.534    1.574
   3.15   17.357   17.912   18.714    4.421    5.423   -0.112    1.340    3.845   -0.432   -0.150    5.153    8.298    2.587
   3.20   16.073   16.615   17.318    4.210    4.881   -1.456    1.354    3.420   -4.978   -1.972    4.632    7.824    3.540
   3.25   17.215   17.605   18.279    3.683    4.919   -0.423    0.638    3.367   -1.426   -0.270    2.147    5.961    1.296
   3.30   18.923   19.019   19.545    1.913    4.505    0.910   -1.402    2.835    2.578   -1.275   -3.973    5.414    2.452
   3.35   18.827   18.916   19.402    1.838    4.315    0.786   -1.459    2.655    2.087   -1.147   -3.875    4.899    2.274
   3.40   18.373   18.624   19.366    3.048    5.310    0.637   -0.189    3.667    2.335   -0.121   -0.694    6.943    1.220
   3.45   18.916   19.153   19.717    3.002    4.685    1.107   -0.329    2.998    3.319   -0.364   -0.986    5.161    1.741
   3.50   19.302   19.423   19.954    2.158    4.573    1.330   -1.227    2.866    3.812   -1.632   -3.516    5.744    2.718
   3.55   18.332   18.415   19.132    1.741    5.190    0.360   -1.469    3.571    1.287   -0.529   -5.244    7.518    2.713
   3.60   20.090   20.125   20.576    1.184    4.283    1.910   -2.323    2.524    4.821   -4.435   -5.863    7.707    4.396
   3.65   17.939   18.011   18.322    1.604    3.363   -0.208   -1.535    1.786   -0.372    0.319   -2.743    2.796    1.393
   3.70   17.404   17.630   17.907    2.812    3.141   -0.544   -0.252    1.592   -0.866    0.137   -0.402    1.447    0.482
   3.75   18.027   18.052   18.382    0.937    3.472   -0.228   -2.208    1.897   -0.432    0.503   -4.190    4.264    2.121
   3.80   18.658   18.658   19.049    0.144    3.839    0.285   -3.098    2.221    0.634   -0.884   -6.878    7.304    3.482
   3.85   18.525   18.525   19.277   -0.097    5.331    0.243   -3.313    3.722    0.905   -0.805  -12.330   12.443    6.195
   3.90   18.141   18.158   18.989    0.771    5.559    0.037   -2.391    3.969    0.148   -0.089   -9.488   10.734    4.745
   3.95   18.307   18.382   19.230    1.649    5.650    0.360   -1.555    4.033    1.452   -0.560   -6.272    9.405    3.231
   4.00   18.489   18.503   19.185    0.697    5.071    0.324   -2.524    3.455    1.118   -0.817   -8.720    9.205    4.414
   4.05   18.149   18.254   18.728    1.949    4.190    0.130   -1.232    2.587    0.335   -0.160   -3.187    4.114    1.604
   4.10   18.821   18.921   19.296    1.938    3.787    0.752   -1.360    2.128    1.600   -1.022   -2.895    3.472    1.731
   4.15   18.661   18.881   19.125    2.872    3.044    0.692   -0.412    1.387    0.959   -0.285   -0.572    1.286    0.576
   4.20   18.611   18.787   18.962    2.563    2.572    0.548   -0.707    0.926    0.507   -0.387   -0.655    0.829    0.457
   4.25   17.654   17.997   18.221    3.498    2.853   -0.205    0.380    1.274   -0.262   -0.078    0.484    0.904    0.278
   4.30   17.219   17.534   17.803    3.308    3.085   -0.644    0.267    1.545   -0.996   -0.172    0.413    1.438    0.546
   4.35   17.408   17.835   18.132    3.884    3.267   -0.344    0.802    1.701   -0.585   -0.276    1.364    1.828    0.755
   4.40   17.416   17.827   18.139    3.806    3.351   -0.342    0.724    1.786   -0.611   -0.247    1.292    1.915    0.725
   4.45   16.519   16.962   17.426    3.851    3.997   -1.158    0.924    2.505   -2.901   -1.070    2.315    4.236    1.931
   4.50   15.502   16.156   16.762    4.552    4.463   -1.994    1.791    3.047   -6.073   -3.570    5.455    8.231    4.455
   4.55   16.096   16.945   17.453    5.297    4.181   -1.307    2.422    2.704   -3.532   -3.164    6.548    7.441    4.042
   4.60   16.935   17.446   17.860    4.190    3.823   -0.706    1.186    2.292   -1.618   -0.837    2.718    3.579    1.636
   4.65   16.670   17.174   17.661    4.129    4.117   -0.951    1.172    2.608   -2.479   -1.114    3.056    4.539    2.045
   4.70   16.562   17.151   17.540    4.458    3.673   -1.039    1.515    2.170   -2.255   -1.574    3.286    4.041    2.142
   4.75   16.738   17.254   17.680    4.186    3.855   -0.897    1.216    2.341   -2.099   -1.090    2.846    3.881    1.850
   4.80   17.130   17.769   18.205    4.724    3.959   -0.410    1.678    2.402   -0.986   -0.689    4.031    4.378    2.103
   4.85   17.004   17.920   18.348    5.656    3.938   -0.374    2.618    2.378   -0.890   -0.980    6.224    6.322    3.181
   4.90   18.005   18.747   19.195    5.222    4.121    0.548    2.016    2.481    1.360    1.105    5.001    5.259    2.649
   4.95   17.610   18.612   19.009    6.025    3.861    0.277    2.875    2.244    0.622    0.797    6.451    6.689    3.265
   5.00   17.632   18.918   19.244    6.855    3.529    0.413    3.689    1.899    0.784    1.524    7.005    8.694    3.606
   5.05   18.172   18.936   19.189    5.322    3.107    0.641    2.086    1.455    0.933    1.338    3.034    3.439    1.722
   5.10   18.590   19.451   19.680    5.722    2.993    1.110    2.407    1.299    1.443    2.672    3.127    4.357    2.180
   5.15   19.409   19.846   20.087    4.141    3.104    1.650    0.707    1.364    2.250    1.167    0.964    2.542    1.356
   5.20   19.142   19.809   20.243    5.096    4.171    1.646    1.694    2.435    4.009    2.789    4.126    5.755    3.197
   5.25   19.387   19.904   20.461    4.508    4.741    1.834    1.073    2.991    5.486    1.968    3.209    6.730    3.327
   5.30   19.013   19.462   19.929    4.152    4.290    1.367    0.788    2.579    3.526    1.077    2.031    4.570    2.105
   5.35   18.717   19.233   19.589    4.428    3.719    1.074    1.110    2.031    2.181    1.192    2.255    3.255    1.678
   5.40   18.250   18.788   19.173    4.464    3.823    0.631    1.227    2.174    1.373    0.774    2.667    3.316    1.549
   5.45   17.911   18.370   18.926    4.079    4.555    0.296    0.906    2.938    0.871    0.269    2.663    4.772    1.407
   5.50   17.805   18.418   18.849    4.712    4.008    0.254    1.549    2.393    0.607    0.393    3.706    4.095    1.888
   5.55   17.160   17.932   18.348    5.205    3.886   -0.304    2.146    2.319   -0.705   -0.652    4.978    5.039    2.535
   5.60   17.273   18.133   18.656    5.519    4.386   -0.096    2.436    2.803   -0.268   -0.233    6.827    6.899    3.418
   5.65   17.108   18.271   18.825    6.416    4.532   -0.090    3.348    2.949   -0.264   -0.300    9.875    9.958    4.941
   5.70   16.832   18.559   18.971    7.817    3.931   -0.170    4.776    2.353   -0.400   -0.811   11.237   14.186    5.636
   5.75   17.387   18.560   18.972    6.492    3.935    0.146    3.374    2.329    0.339    0.492    7.860    8.417    3.941
   5.80   18.606   19.336   19.536    5.263    2.787    1.029    1.952    1.100    1.131    2.008    2.147    3.039    1.575
   5.85   17.979   18.604   18.907    4.781    3.375    0.381    1.586    1.746    0.666    0.605    2.770    2.856    1.456
   5.90   17.892   18.465   18.743    4.566    3.215    0.245    1.389    1.598    0.391    0.340    2.220    2.271    1.140
   5.95   17.947   18.772   19.027    5.503    3.107    0.451    2.303    1.471    0.664    1.039    3.389    3.837    1.803
   6.00   17.515   18.447   18.874    5.792    3.990    0.154    2.663    2.384    0.368    0.411    6.348    6.398    3.186
   6.05   18.397   19.289   19.671    5.798    3.856    1.009    2.516    2.175    2.195    2.539    5.472    6.039    3.209
   6.10   18.026   18.874   19.384    5.593    4.416    0.659    2.378    2.767    1.823    1.567    6.579    6.872    3.502
   6.15   17.958   18.938   19.761    6.013    5.644    0.771    2.803    3.990    3.078    2.162   11.186   12.188    5.901
   6.20   17.435   18.627   19.630    6.554    6.197    0.401    3.427    4.577    1.835    1.374   15.688   16.430    7.927
   6.25   17.035   18.615   19.407    7.505    5.486    0.111    4.433    3.890    0.431    0.491   17.241   17.395    8.627
   6.30   17.100   18.475   19.073    6.996    4.736    0.020    3.920    3.144    0.064    0.080   12.327   12.628    6.164
   6.35   17.227   18.557   19.323    6.899    5.389    0.185    3.803    3.785    0.701    0.704   14.395   14.412    7.215
   6.40   18.399   19.580   20.512    6.698    6.112    1.364    3.401    4.409    6.012    4.639   14.995   16.432    8.404
   6.45   18.910   20.558   21.651    8.066    6.793    2.161    4.660    5.022   10.851   10.067   23.402   25.802   13.845
   6.50   17.830   19.780   20.450    8.565    5.192    1.048    5.339    3.513    3.680    5.594   18.754   20.971    9.957
   6.55   18.981   21.072   21.930    9.152    6.074    2.356    5.717    4.284   10.092   13.468   24.489   28.291   14.857
   6.60   19.342   20.802   21.755    7.657    6.368    2.477    4.182    4.568   11.313   10.357   19.100   22.242   12.248
   6.65   18.255   19.502   20.532    6.863    6.420    1.278    3.589    4.724    6.036    4.585   16.955   18.416    9.286
   6.70   19.459   20.257   21.397    5.629    6.892    2.287    2.165    5.110   11.686    4.950   11.061   18.014    8.417
   6.75   18.537   19.277   20.892    5.291    8.054    1.425    1.992    6.352    9.051    2.839   12.654   23.174    7.907
   6.80   19.246   19.902   20.985    5.069    6.655    1.960    1.650    4.901    9.604    3.234    8.087   15.290    6.482
   6.85   18.832   19.444   20.841    4.838    7.502    1.588    1.494    5.784    9.185    2.372    8.641   19.105    6.416
   6.90   18.172   18.632   20.011    4.117    7.298    0.797    0.899    5.649    4.504    0.717    5.078   16.675    3.413
   6.95   17.150   17.785   19.407    4.712    7.768   -0.061    1.662    6.195   -0.380   -0.102   10.296   20.571    5.152
   7.00   17.551   18.189   19.700    4.776    7.566    0.326    1.656    5.958    1.940    0.539    9.868   19.174    5.036
   7.05   19.294   19.875   21.192    4.769    7.353    2.016    1.347    5.597   11.285    2.715    7.537   18.603    6.920
   7.10   20.050   20.516   21.899    4.349    7.659    2.712    0.801    5.843   15.844    2.173    4.681   21.067    8.331
   7.15   19.688   20.141   21.517    4.245    7.570    2.331    0.762    5.788   13.492    1.776    4.408   19.755    7.152
   7.20   19.135   19.823   21.358    5.178    7.950    1.983    1.777    6.199   12.291    3.523   11.014   22.756    8.438
   7.25   20.389   21.065   22.762    5.291    8.625    3.292    1.670    6.762   22.261    5.499   11.295   29.678   12.781
   7.30   21.032   21.702   23.793    5.352    9.754    4.031    1.618    7.830   31.568    6.524   12.671   40.092   17.318
   7.35   20.425   21.042   23.869    5.055   11.270    3.517    1.431    9.397   33.048    5.034   13.450   51.360   18.017
   7.40   19.267   20.430   23.281    6.797   11.163    2.672    3.348    9.364   25.023    8.947   31.352   53.019   20.549
   7.45   18.632   20.109   22.612    7.564   10.341    2.111    4.213    8.588   18.128    8.893   36.182   47.979   20.718
   7.50   19.356   20.747   23.049    7.468   10.042    2.778    3.993    8.230   22.865   11.095   32.863   45.696   20.772
   7.55   19.462   21.145   23.224    8.265    9.606    2.982    4.760    7.774   23.185   14.197   37.004   45.993   22.959
   7.60   19.703   21.374   23.570    8.283    9.934    3.251    4.736    8.080   26.266   15.394   38.265   49.141   24.450
   7.65   19.359   20.545   22.867    6.878   10.041    2.679    3.411    8.237   22.070    9.140   28.099   43.332   18.440
   7.70   19.240   20.390   22.670    6.752    9.909    2.529    3.308    8.117   20.528    8.366   26.852   41.615   17.410
   7.75   18.138   19.122   21.095    6.055    8.906    1.240    2.814    7.224    8.957    3.489   20.328   30.822   11.243
   7.80   17.849   18.784   21.230    5.852    9.893    1.007    2.664    8.235    8.294    2.683   21.936   37.962   11.802
   7.85   17.792   18.922   21.710    6.440   10.643    1.119    3.253    8.978   10.046    3.640   29.204   46.220   15.549
   7.90   17.908   18.822   22.120    5.795   11.620    1.206    2.597    9.951   11.998    3.131   25.846   53.614   14.333
   7.95   18.505   19.240   21.702    5.268   10.040    1.563    1.974    8.333   13.023    3.086   16.454   37.892   10.605
   8.00   18.293   18.900   21.584    4.752   10.425    1.299    1.503    8.743   11.356    1.952   13.142   40.194    8.739
   8.05   17.790   18.198   20.606    3.835    9.666    0.580    0.687    8.044    4.669    0.399    5.528   32.760    3.624
   8.10   18.228   18.717   21.138    4.252    9.821    1.096    1.022    8.155    8.938    1.120    8.335   34.373    6.136
   8.15   19.230   19.679   22.184    4.183   10.240    2.103    0.781    8.487   17.850    1.642    6.624   38.529    9.555
   8.20   19.714   20.091   22.413    3.873    9.935    2.498    0.391    8.147   20.354    0.976    3.183   36.383   10.312
   8.25   20.730   21.038   23.606    3.590   10.706    3.513   -0.065    8.832   31.026   -0.227   -0.570   45.174   15.516
   8.30   20.728   20.847   23.505    2.229   10.858    3.289   -1.404    9.004   29.611   -4.618  -12.645   46.931   16.264
   8.35   20.095   20.115   22.909    0.904   10.963    2.448   -2.600    9.183   22.477   -6.363  -23.871   48.536   16.700
   8.40   20.667   20.704   23.379    1.227   10.860    3.056   -2.380    9.026   27.586   -7.276  -21.486   48.237   17.858
   8.45   20.334   20.401   23.257    1.645   11.167    2.828   -1.911    9.354   26.459   -5.406  -17.880   49.580   16.194
   8.50   20.224   20.379   23.122    2.511   10.924    2.849   -1.039    9.108   25.951   -2.960   -9.464   46.081   13.891
   8.55   19.743   19.953   22.700    2.886   10.826    2.434   -0.586    9.046   22.015   -1.426   -5.300   44.049   11.344
   8.60   19.526   19.739   22.097    2.895    9.933    2.144   -0.540    8.175   17.529   -1.158   -4.415   35.863    9.057
   8.65   20.502   20.832   22.943    3.695    9.613    3.212    0.078    7.761   24.928    0.252    0.608   35.277   12.468
   8.70   20.913   21.036   23.354    2.270   10.144    3.415   -1.396    8.276   28.265   -4.767  -11.551   41.051   15.452
   8.75   20.929   21.031   23.124    2.067    9.614    3.350   -1.598    7.749   25.961   -5.355  -12.387   36.916   14.629
   8.80   20.059   20.216   22.104    2.511    8.939    2.514   -1.010    7.145   17.966   -2.540   -7.217   29.199    9.764
   8.85   19.760   20.137   21.950    3.879    8.735    2.440    0.389    6.947   16.947    0.949    2.703   27.182    8.594
   8.90   18.937   19.532   21.200    4.784    8.243    1.746    1.423    6.514   11.374    2.484    9.268   23.754    7.440
   8.95   18.059   18.601   20.280    4.459    8.079    0.814    1.255    6.431    5.236    1.022    8.071   21.797    4.838
   9.00   19.184   19.409   20.721    2.948    7.258    1.585   -0.428    5.539    8.777   -0.678   -2.371   16.688    4.558
   9.05   19.078   19.231   20.324    2.416    6.577    1.330   -0.933    4.878    6.487   -1.241   -4.553   13.216    4.011
   9.10   19.103   19.173   20.507    1.643    7.275    1.281   -1.700    5.583    7.152   -2.177   -9.489   17.851    6.040
   9.15   19.449   19.526   21.242    1.729    8.366    1.730   -1.674    6.639   11.488   -2.897  -11.115   24.934    8.123
   9.20   19.280   19.422   21.099    2.338    8.245    1.660   -1.046    6.523   10.829   -1.736   -6.820   23.200    6.457
   9.25   19.853   20.063   21.709    2.897    8.293    2.322   -0.595    6.514   15.127   -1.381   -3.873   24.090    7.838
   9.30   20.070   20.319   21.953    3.170    8.310    2.585   -0.364    6.507   16.819   -0.940   -2.367   24.580    8.505
   9.35   20.436   20.611   22.492    2.685    9.003    2.920   -0.904    7.174   20.945   -2.639   -6.485   30.404   11.042
   9.40   20.138   20.226   21.851    1.888    8.268    2.426   -1.638    6.480   15.717   -3.973  -10.614   25.277    9.688
   9.45   20.901   20.950   22.629    1.436    8.552    3.121   -2.216    6.704   20.922   -6.914  -14.853   29.795   13.287
   9.50   21.869   21.924   23.703    1.561    9.009    4.131   -2.260    7.074   29.227   -9.337  -15.989   36.112   17.299
   9.55   21.357   21.408   23.134    1.475    8.767    3.594   -2.256    6.878   24.718   -8.106  -15.516   32.657   15.144
   9.60   20.536   20.549   22.255    0.740    8.545    2.641   -2.837    6.739   17.799   -7.494  -19.121   30.221   13.588
   9.65   21.457   21.504   23.241    1.416    8.816    3.686   -2.331    6.919   25.502   -8.592  -16.130   33.448   15.687
   9.70   21.540   21.567   23.130    1.082    8.359    3.669   -2.675    6.462   23.711   -9.815  -17.287   31.190   15.471
   9.75   21.902   22.020   23.471    2.276    8.123    4.211   -1.562    6.178   26.013   -6.576   -9.649   29.168   14.257
   9.80   21.170   21.206   22.693    1.235    8.081    3.308   -2.460    6.214   20.559   -8.138  -15.285   27.806   13.440
   9.85   21.855   21.866   22.994    0.711    7.115    3.805   -3.095    5.201   19.793  -11.777  -16.097   25.556   14.050
   9.90   21.906   21.965   23.092    1.607    7.127    4.012   -2.222    5.195   20.843   -8.913  -11.542   24.011   12.719
   9.95   21.642   21.726   23.178    1.903    8.075    3.887   -1.884    6.158   23.936   -7.322  -11.600   28.289   13.794
  10.00   21.357   21.485   22.942    2.345    8.046    3.681   -1.400    6.147   22.626   -5.151   -8.604   26.648   12.374
  10.05   21.751   21.809   23.292    1.600    8.177    3.950   -2.202    6.255   24.706   -8.696  -13.771   29.786   14.796
  10.10   22.227   22.259   23.697    1.194    8.131    4.343   -2.684    6.174   26.811  -11.655  -16.569   32.089   16.802
  10.15   21.629   21.682   23.072    1.508    7.889    3.790   -2.270    5.980   22.663   -8.604  -13.577   27.639   13.892
  10.20   22.410   22.493   23.527    1.931    6.897    4.543   -1.990    4.918   22.339   -9.040   -9.787   24.390   13.005
  10.25   22.149   22.320   23.356    2.755    6.879    4.428   -1.133    4.910   21.740   -5.015   -5.561   22.498   11.497
  10.30   22.236   22.405   23.438    2.747    6.881    4.512   -1.156    4.905   22.130   -5.215   -5.670   22.875   11.716
  10.35   21.130   21.464   22.566    3.773    6.964    3.611    0.047    5.067   18.297    0.169    0.237   19.358    9.150
  10.40   21.256   21.674   23.002    4.237    7.703    3.879    0.482    5.785   22.443    1.870    2.789   24.376   11.347
  10.45   21.697   22.308   23.287    5.185    6.682    4.387    1.338    4.715   20.687    5.872    6.311   21.636   11.205
  10.50   20.389   21.260   22.411    6.022    7.092    3.284    2.390    5.224   17.158    7.848   12.484   21.895   11.312
  10.55   21.633   22.339   23.201    5.571    6.268    4.355    1.730    4.303   18.738    7.534    7.444   20.236   10.762
  10.60   21.604   22.323   23.115    5.620    5.996    4.312    1.783    4.034   17.393    7.687    7.192   19.020   10.165
  10.65   20.958   21.836   22.612    6.128    5.872    3.755    2.396    3.958   14.862    8.995    9.482   17.752    9.896
  10.70   22.084   22.929   23.689    6.169    5.949    4.873    2.241    3.937   19.185   10.920    8.822   22.134   11.887
  10.75   22.886   23.457   24.004    5.143    5.096    5.408    1.091    3.034   16.410    5.901    3.311   19.822    8.875
  10.80   21.720   22.358   23.012    5.304    5.446    4.323    1.452    3.480   15.044    6.276    5.053   16.453    8.533
  10.85   22.549   23.102   23.817    5.025    5.794    5.118    1.033    3.761   19.247    5.288    3.886   20.701   10.167
  10.90   21.991   22.718   23.321    5.701    5.270    4.641    1.796    3.276   15.206    8.336    5.884   17.751    9.156
  10.95   22.144   22.949   23.838    6.028    6.448    4.951    2.091    4.432   21.941   10.352    9.267   24.261   12.985
  11.00   21.536   22.192   23.725    5.357    8.390    4.408    1.536    6.429   28.337    6.771    9.875   31.560   15.381
  11.05   22.081   22.718   24.239    5.342    8.453    4.945    1.426    6.445   31.869    7.052    9.191   34.011   16.955
  11.10   22.775   23.537   25.218    5.941    9.054    5.782    1.896    6.975   40.328   10.963   13.226   42.838   21.917
  11.15   22.944   23.586   24.986    5.465    8.246    5.795    1.398    6.163   35.714    8.102    8.616   36.759   18.811
  11.20   23.619   24.380   26.021    6.041    9.096    6.632    1.848    6.943   46.040   12.254   12.829   47.796   24.670
  11.25   24.403   25.177   26.724    6.192    8.962    7.415    1.860    6.740   49.976   13.793   12.537   51.934   26.669
  11.30   23.533   23.975   25.931    4.582    9.880    6.363    0.426    7.753   49.330    2.708    3.300   50.388   24.757
  11.35   23.973   24.298   25.950    3.961    9.111    6.620   -0.262    6.958   46.064   -1.733   -1.822   46.156   23.066
  11.40   23.755   24.276   25.815    5.004    8.780    6.558    0.803    6.632   43.491    5.263    5.323   43.816   22.065
  11.45   24.430   24.973   26.997    5.178   10.256    7.379    0.857    8.041   59.335    6.327    6.895   59.922   30.034
  11.50   24.639   25.316   27.472    5.816   10.669    7.730    1.449    8.425   65.128   11.204   12.212   66.420   33.602
  11.55   24.106   25.215   26.917    7.395    9.418    7.372    3.097    7.201   53.083   22.829   22.301   57.893   30.969
  11.60   24.917   25.857   27.479    6.908    9.300    8.072    2.476    7.021   56.680   19.989   17.386   60.298   31.283
  11.65   24.791   25.786   27.672    7.094   10.041    8.046    2.681    7.767   62.492   21.573   20.826   66.126   34.657
  11.70   24.367   25.259   27.018    6.652    9.590    7.514    2.319    7.361   55.315   17.428   17.074   58.016   30.228
  11.75   23.928   24.622   26.499    5.806    9.796    6.955    1.563    7.618   52.976   10.871   11.908   54.418   27.688