
This full-field turbulence file was generated by TurbSim (v2.00.01a-bjj, 14-Oct-2014) on 14-Oct-2014 at 12:52:53.

 | w-comp |  Y  x  Z  | Grid Resolution (Y x Z) | Time-step | Hub Elev | Mean U |
            13    13      6.667      6.667          0.050      84.29     13.50

 Z Coordinates (m):
  -40.000 -33.333 -26.667 -20.000 -13.333  -6.667   0.000   6.667  13.333  20.000  26.667  33.333  40.000

 Y Coordinates (m):
  -40.000 -33.333 -26.667 -20.000 -13.333  -6.667   0.000   6.667  13.333  20.000  26.667  33.333  40.000

    0.000  -0.350
    0.384   0.097  -0.379  -0.428  -0.644  -0.143   0.632  -0.566   0.710   1.110   1.260   0.129  -0.661
    0.399  -0.730  -0.708  -0.459  -0.252   0.811   0.648   0.095   0.882   1.383   1.360   0.725  -0.151
   -0.968  -0.511  -1.322  -1.262  -0.327  -1.024  -1.161   0.766   0.301   0.853   1.070   0.753  -0.104
   -0.550   0.240  -0.248  -1.254  -0.889  -0.574   0.052   0.156   0.440  -0.433  -0.665   0.393   0.057
   -0.127   0.381  -0.145  -1.037  -0.377   0.229   0.367  -0.368  -0.871  -1.093  -0.785  -0.283  -0.823
    0.233   0.157  -0.717   0.371   0.233   0.112  -0.371  -0.019  -1.195  -1.202  -1.445  -1.342  -0.410
    0.192   1.143  -0.744  -0.274   0.581   1.195  -0.350  -0.054  -1.252  -0.919  -0.749  -1.694  -0.007
   -1.714  -0.884  -1.653  -0.471  -0.607   0.378  -0.411  -0.956  -1.008  -0.629  -0.396   0.121  -0.458
   -0.676  -0.627  -0.093  -1.730  -0.272   0.409   0.071  -0.313  -1.215  -0.437   0.180   0.939   1.110
    0.049  -1.183  -0.445  -1.356  -0.332   0.370   2.011   1.256  -0.905   0.175  -0.533   0.031  -0.065
   -0.878  -0.246   0.129  -1.231  -0.311   0.328  -0.432   0.683   0.598  -0.128  -1.344  -0.076  -0.485
   -1.146  -0.033   0.858   0.359   0.932   0.036   1.204   0.883   0.205  -0.050  -0.812  -0.498  -0.471
    1.455   0.222  -0.007   0.647   0.341   0.991   2.242   0.440   1.164  -0.507  -0.802  -0.428   0.404

    0.050  -0.468
    0.853  -0.290  -0.409  -0.306  -0.450   0.091   1.130  -0.630   0.834   1.157   1.192   0.329  -0.852
    0.738  -0.827  -0.704  -0.387  -0.061   1.142   0.580  -0.301   0.808   0.756   1.001   0.175  -0.613
   -1.372  -0.274  -1.201  -1.577   0.176  -0.440  -0.724   0.715   0.000   0.715   0.870   0.165  -0.277
   -0.246   0.139  -0.211  -1.020  -0.531  -0.352   0.346  -0.065   0.008  -0.597  -0.424   0.284  -0.193
   -0.176   0.799  -0.126  -0.723  -0.731   0.027   0.192   0.079  -0.756  -1.298  -0.847  -0.724  -1.183
   -0.323   0.351  -0.947  -0.030   0.410  -0.184  -0.369   0.128  -1.500  -1.202  -2.235  -1.284  -0.802
    0.322   0.374  -0.515   0.160   0.595   1.318  -0.468  -0.477  -1.617  -1.119  -0.839  -0.875  -0.429
   -1.758  -0.921  -1.625  -0.377  -0.264  -0.351  -0.780  -1.187  -1.094   0.249  -0.484  -0.595  -0.923
   -0.597  -0.850  -0.624  -1.683  -0.542   0.040  -0.927   0.762  -1.380  -0.268   0.318   0.465   0.963
    0.144  -1.545  -0.757  -1.781  -0.509   0.364   1.426   0.995  -0.640  -0.149   0.314  -0.849  -0.537
   -1.171  -0.336  -0.304  -1.050  -0.748  -0.284  -0.054   0.377  -0.011  -0.397  -0.233  -1.067  -0.412
   -0.614  -0.435   0.329  -0.366   1.088  -0.040   0.497   1.314   0.126  -0.117  -0.715  -0.294  -0.236
    1.100  -0.050   0.193   0.082  -0.378   1.136   1.852   0.746   0.922  -0.324   0.181  -0.341   0.163

    0.100  -0.150
    0.521  -0.381  -0.609  -0.628  -0.539   0.347   0.891  -0.139   0.690   0.847   1.298   0.436  -0.521
    0.922  -1.025  -0.864  -0.561  -0.326   1.395   0.425  -0.356   0.699   1.085   1.469  -0.247  -0.489
   -0.967   0.128  -0.508  -1.219  -0.006  -0.602  -0.021   0.755   0.231   0.861   0.713   0.552   0.055
   -0.003   0.413   0.097  -1.052  -0.060  -0.225   0.077   0.034  -0.780  -0.783  -0.663   0.263  -0.285
   -0.445   0.835  -0.251  -0.089  -0.495   0.786  -0.014   0.132  -1.034  -1.223  -0.653  -0.705  -0.526
    0.047   0.614  -0.546   0.482   0.170  -1.446  -0.460  -0.367  -1.286  -1.620  -1.335  -1.758  -0.791
    0.160   0.904  -0.139  -0.017  -0.169   0.524  -0.150  -0.412  -1.514  -0.784  -0.719  -1.205  -0.915
   -1.930  -1.051  -1.050  -0.483  -0.122   0.271  -0.173  -1.252  -0.914  -0.029  -0.195  -0.723  -0.476
   -0.366  -0.340  -0.903  -2.215  -0.461  -0.070  -0.596   0.473  -1.241   0.088  -0.078   0.363   0.385
    0.051  -0.837  -1.352  -1.746  -0.458  -0.253   0.532   0.726  -0.960  -0.106  -0.770  -0.534   0.703
   -0.770  -0.335  -0.306  -0.844  -1.239  -0.082  -0.156   0.277  -0.087  -0.959  -0.301  -1.316  -0.390
   -0.693  -0.537   0.294  -0.233   0.606  -0.335   0.839   1.003   0.041   0.068  -0.815  -0.251  -0.131
    0.939  -0.076   1.404   0.162  -0.280   1.234   1.589   1.224   0.368  -0.043   0.335  -0.164  -0.166

    0.150  -0.840
    0.392  -0.226  -0.480  -0.925  -0.594   0.643   0.759   0.345   1.063   0.532   0.813   0.322  -1.185
    0.839  -0.792  -0.226  -0.187  -0.834   0.826   0.746  -0.747   0.422   0.990   1.345  -0.233  -0.607
   -0.454   0.077  -0.043  -1.708  -0.376  -0.259  -0.264   0.597   0.320   1.009   0.580   0.403  -0.250
    0.295   0.312  -0.047  -0.556  -0.080  -0.167   0.160  -0.692  -0.078  -0.510  -0.819  -0.313  -0.111
   -0.579   0.479  -0.191  -0.094  -0.435   1.344   0.013   0.617  -0.861  -0.635  -1.469  -0.314  -0.777
    0.595   0.750  -0.043   0.556   0.137  -1.628  -0.271  -0.784  -1.685  -1.794  -0.551  -1.834  -0.584
   -0.286   0.344   0.153  -0.513  -0.387   0.067  -0.840  -0.841  -1.911  -0.774  -1.150  -1.254  -0.497
   -2.376  -0.726  -0.937  -0.488  -0.334   0.238  -0.074  -1.463  -0.945   0.634   0.411  -1.218  -0.205
   -0.836  -1.025  -1.034  -2.073   0.145  -0.287   0.093  -0.077  -0.818  -0.133  -0.176  -0.417  -0.133
   -0.680  -0.621  -0.193  -1.289   0.215   0.571   0.250   0.163  -0.850   0.654  -0.170   0.162   0.417
   -0.715  -0.641  -0.426  -1.248  -1.124   0.125  -0.491   0.216   0.344  -1.113  -0.242  -1.219  -0.908
   -0.203  -0.005  -0.041   0.114   0.292  -0.543   1.036   0.263  -0.623   0.427  -1.189  -0.630  -0.098
    0.272  -0.201   1.258   0.197  -0.138   1.559   0.912   1.159   0.677   1.473   0.226  -0.199   0.077

    0.200  -0.203
    0.282  -0.560  -0.198  -0.731  -0.570   0.824   0.734   0.233   0.674   1.097   0.872  -0.105  -0.887
    0.566  -0.659  -0.623  -0.253  -0.875   0.625   0.020  -0.255   0.669   0.592   1.010  -0.282  -0.268
   -0.622  -0.144  -0.162  -1.223  -0.240   0.032  -0.395   0.465   0.209   0.635   0.374  -0.031  -0.199
    0.006   0.253  -0.451  -0.388   0.034  -0.426   0.172  -0.689  -0.321  -0.086  -1.810  -1.169   0.009
   -0.183   0.877   0.372  -0.157  -0.267   1.305   0.011   0.511  -0.503  -0.932  -0.843  -0.675  -0.849
    1.327   1.555  -0.806  -0.364   0.262  -1.286  -0.562  -0.216  -1.120  -1.764  -0.789  -1.281  -0.874
   -0.165   0.368   0.044  -0.179  -0.182  -0.356  -0.203  -0.665  -2.260  -1.423  -1.166  -1.377  -0.351
   -1.421  -0.705  -1.175  -1.254  -0.553  -0.928   0.222  -1.596  -1.090   0.402  -0.096  -0.837  -0.035
   -1.136  -0.961  -1.206  -1.947  -0.411  -0.398   0.085   0.810  -0.580  -0.311   0.218  -0.959   0.083
   -0.807   0.062  -1.072  -0.798   0.005   0.096   0.423   1.130  -0.758  -0.258  -0.393   0.579   0.196
   -1.116  -1.272  -0.978  -0.946  -1.215   0.565  -0.410   0.121  -0.057  -0.785  -0.026  -1.031  -0.285
   -0.360   0.216  -0.217   0.003   0.893  -0.356   0.984   0.463  -0.507   0.137  -1.482  -0.266  -0.189
   -0.244  -0.397   1.322   0.190   0.392   1.903   0.576   0.963   0.767   2.012   0.401  -0.147   0.652

    0.250  -0.589
    0.234  -0.262  -0.304  -0.362  -0.268   0.482   1.161   0.280   0.458   0.770   0.535  -0.319  -0.836
    0.639  -0.970  -0.001   0.109  -0.248   0.519   0.337   0.061   0.571   0.951   0.779  -0.630  -0.015
   -0.451  -0.231   0.097  -0.637  -0.967   0.254  -0.551   1.025   0.352   0.660   0.258  -0.303  -0.407
    0.200   0.291  -0.294  -0.686   0.285  -0.678  -0.005  -0.921  -0.259   0.087  -1.302  -1.126  -0.194
   -0.532   0.711   0.492  -1.115  -0.630   0.836  -0.021   0.425  -0.301  -1.157  -1.142  -1.057  -0.859
    0.784   1.682  -0.690  -0.262   0.165  -1.352  -0.756   0.171  -0.301  -1.424  -1.814  -1.386  -0.867
   -0.417   0.496  -0.333   0.111  -0.599  -0.688  -0.589  -0.919  -2.401  -1.673  -1.204  -1.104  -0.289
   -1.080  -0.416  -0.666  -1.633  -1.161  -0.437   0.257  -1.786  -1.724  -0.209  -0.217  -0.974   0.084
   -1.557  -1.361  -1.088  -1.538  -1.054   0.048  -0.045   0.296   0.037  -0.503   0.280  -0.611   0.848
   -0.255   0.291  -1.067  -0.262  -0.052  -0.005   0.298   1.089  -0.258  -0.408  -0.171   0.182   0.035
   -0.821  -0.549  -0.948  -0.129  -0.373   0.069  -0.419   0.158  -0.354  -0.053  -0.376  -0.845  -0.191
   -0.396   0.345  -0.234  -0.131   0.695  -0.540   1.107   0.363   0.689  -0.061  -1.023  -0.214  -0.424
   -0.007   0.015   1.070  -0.407   1.047   1.147   0.509   0.760   0.157   1.663  -0.228  -0.577   0.761

    0.300  -0.662
    0.279   0.028  -0.226  -0.094   0.275   0.157   1.407  -0.222   0.785   0.439   0.606  -0.141  -0.827
    0.384  -0.857  -0.009   0.248  -0.725   0.797   0.745   0.032   0.183   0.691   0.826  -0.886  -0.660
   -0.019  -0.013   0.629  -0.722  -1.011   0.549  -0.596   0.847   0.223   0.187   0.177  -0.967  -0.409
    0.189   0.090  -0.500  -0.794   0.487  -0.013  -0.408  -1.017  -0.339  -0.990  -1.102  -1.089  -0.182
   -0.401   1.128   0.342  -1.070  -0.284   0.761  -0.136   0.403  -0.415  -0.439  -1.094  -1.132  -1.060
    0.411   1.491  -0.430   0.014   0.162  -0.736  -0.335   0.235  -0.317  -1.638  -1.869  -1.041  -0.981
   -0.570   1.436  -0.134  -0.054  -1.192   0.008  -0.662  -1.019  -1.382  -1.554  -1.086  -0.932  -0.419
   -0.995  -0.118  -0.142  -1.710  -0.684   0.328   0.209  -1.596  -1.837  -0.144   0.116  -1.072  -0.089
   -1.072  -1.799  -0.798  -1.626  -0.984  -0.282  -0.167  -0.562   0.534  -0.385   0.392  -1.134   0.674
    0.394  -0.106  -1.104  -0.499  -0.778   0.049   0.286   0.326   0.143  -0.220  -0.301  -0.168   0.301
   -0.547   0.161  -0.870  -0.114   0.097  -0.239   0.316  -0.427   0.216   0.373  -0.540  -0.105  -0.578
   -0.155   0.067  -0.287  -0.189  -0.085  -0.557   1.095   1.059   0.795   0.476   0.101   0.382  -0.217
   -0.273  -0.017   0.240  -0.186   0.714   0.869   0.176   0.281  -0.437   1.763  -0.124   0.192   0.417

    0.350  -0.108
   -0.218   0.043  -0.029   0.028  -0.047   0.259   1.236  -0.066   0.610   0.165   0.642   0.458  -0.419
    0.364  -0.761   0.222   0.114  -0.353   0.940   0.675   0.675   0.305   0.220   0.357  -0.588  -0.797
    0.039   0.352   0.292  -0.201  -0.923   0.750  -0.449   0.989  -0.131   0.183   0.072  -0.419   0.039
   -0.201   0.183   0.000  -0.860   0.762  -0.177  -1.128  -1.206  -0.445  -0.790  -0.804  -0.733  -0.861
   -0.463   1.024  -0.373  -0.457  -0.530   0.635  -0.324   0.205  -0.498  -0.736  -1.253  -1.668  -1.018
   -0.189   0.956   0.220   0.031   0.255  -0.055  -0.297   0.297  -0.541  -1.761  -1.030  -1.489  -1.527
   -0.422   1.323  -0.516  -0.016  -0.649  -0.373  -0.108  -0.914  -2.174  -1.851  -0.938  -0.655  -0.400
   -1.088   0.068  -0.234  -1.545  -0.703  -0.375  -0.005  -1.815  -1.208  -0.123  -0.128  -1.676  -0.064
   -0.889  -1.128  -1.432  -1.013   0.006  -0.364   0.185  -1.323  -0.568  -0.112   0.082  -1.203   0.665
    0.609  -0.157  -1.158  -0.438  -0.180  -0.166   0.040   0.965   0.333  -0.295  -0.030  -0.082   0.060
   -0.871   0.031  -0.861  -0.065   0.147   0.169   0.416  -0.415   0.766   0.536   0.194   0.666  -0.558
   -0.482   0.073  -0.616  -0.440   0.366  -0.614   0.978   0.976   0.130   0.463   0.175   0.385  -0.373
   -0.075  -1.032   0.431   0.546   0.826   1.285   0.315   0.800  -0.580   1.594  -0.055   0.398  -0.069

    0.400  -0.456
    0.359   0.346  -0.119   0.467  -0.016   0.430   1.224  -0.084   0.578   0.573   0.601   0.286  -0.206
    0.344  -0.717   0.470   0.213  -0.214   0.653   0.547   0.682   0.232   0.537   0.108  -0.595  -0.375
    0.159   0.128   0.674   0.164  -0.583   0.379  -0.822   0.371  -0.156   0.420   0.079  -0.454   0.093
   -0.069   0.240   0.363  -0.647   0.718   0.340  -0.971  -0.980  -0.269  -0.791  -0.786  -0.875  -0.948
   -0.309   0.906   0.242  -0.321  -0.306   0.540  -0.126   0.361  -0.404  -1.077  -1.595  -1.785  -1.442
   -0.080   1.034   0.258  -0.017   0.526  -0.018  -0.217   0.891  -0.761  -1.383  -1.598  -1.620  -1.392
   -0.078   1.187   0.012   0.050  -0.190  -0.381  -0.456  -1.033  -2.262  -1.277  -1.021  -0.532  -0.171
   -0.475   0.106  -0.229  -1.854  -0.852  -1.125   0.633  -1.897  -0.602  -0.508   0.159  -1.562   0.363
   -1.461  -1.490  -1.258  -1.603  -0.023  -0.963   0.099  -1.330  -0.280   0.148   0.159  -0.620   1.061
    0.638  -0.220  -0.647  -0.225  -0.376  -0.321   0.419   1.434  -0.084  -0.226   0.379  -0.259   0.388
   -0.663  -0.326  -1.071  -0.520   1.225   0.023  -0.297  -0.081   1.169   0.669  -0.353   0.515  -0.325
   -0.300  -0.949  -0.441  -0.217   0.411  -1.018   1.363   1.225   0.289   0.755   0.135   0.227  -0.262
   -0.317  -0.796   1.418   0.917   0.901   1.218   0.498   0.815   0.314   2.111   0.335   0.565  -0.663

    0.450  -0.164
    0.655   0.391  -0.229   0.608   0.647   0.138   0.996   0.156   0.670   0.597   0.351   0.180  -0.383
    0.293  -0.526   0.218   0.394   0.347   0.650   0.738   0.114   0.814   0.597   0.362  -0.577  -0.755
    0.156  -0.094   0.628  -0.236  -0.654   0.027  -0.641   0.597  -0.339   0.281   0.012   0.109   0.147
   -0.235  -0.008   0.453  -0.655   0.387   0.250  -1.060  -0.871  -0.390  -0.897  -0.680  -0.813  -0.869
    0.367   0.682   0.065  -0.060   0.303   0.565  -0.076  -0.242  -0.092  -1.482  -1.354  -1.725  -1.825
    0.160   1.047   0.033   0.180   0.343  -0.025  -0.171   0.366  -0.363  -1.311  -1.253  -1.173  -1.789
    0.115   1.112   0.010  -0.227  -0.423  -0.391  -0.164  -0.581  -1.647  -0.746  -1.455  -0.352  -0.254
   -0.658   0.169   0.012  -1.411  -1.165  -0.892   0.472  -1.574  -0.570  -0.481   0.055  -1.256  -0.046
   -1.114  -1.627  -1.596  -1.422  -0.018  -1.541   0.182  -1.314  -0.197   0.258  -0.216  -0.883   0.704
    0.311  -0.373  -1.079  -0.067  -0.516  -0.631  -0.055   0.696   0.231  -0.781   0.347  -0.576   0.396
   -1.067  -1.133  -0.404  -0.182   0.952   0.895  -0.610  -0.202   1.585   0.757  -0.007   0.730   0.107
    0.219  -0.095  -0.077  -0.122   0.222  -0.246   0.761   1.005  -0.028   0.806   0.521   0.084   0.242
   -0.460  -0.494   1.129   1.180   1.533   1.283   0.843   0.573  -0.228   2.036   0.752   0.436  -0.972

    0.500  -0.080
    0.313   0.502  -0.031   0.714   0.738   0.244   1.000   0.110   0.742   0.551  -0.122   0.063  -0.886
    0.218  -0.304   0.136   0.630   0.395   0.681   0.643   0.235   0.897   0.739   0.695  -0.391  -0.547
    0.271   0.420   0.690  -0.418  -0.593   0.050  -0.179   0.590  -0.095   0.172  -0.517  -0.021   0.087
   -0.190   0.125   0.709  -0.193   0.836  -0.080  -1.157  -0.771  -0.207  -1.420  -0.798  -0.896  -0.889
    0.255   0.393  -0.371   0.262  -0.062   0.836   0.120  -0.231  -0.072  -1.117  -1.267  -1.547  -1.919
   -0.340   1.434  -0.228   0.183   0.430  -0.263  -0.328   0.053  -0.548  -1.660  -1.215  -1.186  -1.519
    0.852   0.585  -0.565  -0.021  -0.685  -0.042  -0.080  -0.438  -1.982  -0.996  -2.365  -0.446  -0.524
    0.074   0.464  -0.638  -1.120  -0.749  -0.525   0.429  -1.087  -0.623  -0.186  -0.400  -0.910  -0.391
   -1.331  -1.324  -2.382  -0.346   0.219  -1.730  -0.186  -0.649  -0.316   1.282  -0.465  -0.328   1.050
    0.652  -0.428  -0.904   0.735  -0.577  -1.042  -0.165   1.072   0.190  -0.177   0.196  -0.241   0.631
   -0.816  -0.612  -0.368   0.680   1.036   1.361  -0.167  -0.155   0.934   0.749  -0.077   0.186  -0.178
    0.295   0.048   0.022   0.207   0.793  -0.882  -0.217   0.733  -0.197   0.850   0.632  -0.968  -0.021
   -0.526   0.195   1.231   1.070   1.599   0.855   0.708  -0.129  -0.863   1.283   0.595   0.400  -1.318

    0.550   0.136
    0.296  -0.012   0.039   0.672   0.382   0.447   0.253   0.490   0.930   0.893  -0.249  -0.225  -0.618
    0.071  -0.442   0.342   0.516  -0.056   0.719   0.436  -0.042   0.802   0.677   0.432  -0.611  -0.525
   -0.240   0.200   0.606   0.015  -0.430   0.156   0.188   0.100   0.074  -0.120  -0.139  -0.109  -0.137
   -0.811   0.357   1.069  -0.481   0.803   0.067  -0.960  -1.068  -0.708  -1.052  -0.158  -0.851  -0.482
    0.447   0.020   0.190   0.460   0.281   0.380  -0.398  -0.445  -0.031  -1.061  -1.184  -1.335  -1.689
    0.129   1.328  -0.647   0.577   0.848   0.066  -0.578  -0.006  -0.495  -1.960  -0.883  -1.952  -1.478
    1.212   0.844  -1.278   0.304  -0.531  -0.189   0.136  -0.332  -1.987  -1.475  -1.698  -0.623  -0.782
    0.610   0.598  -1.340  -0.893  -0.437  -0.235   0.466  -1.059  -0.458  -0.252  -0.516  -1.112  -0.263
   -0.996  -0.741  -2.506  -0.200   0.487  -1.890  -1.141  -0.741   0.432   1.000  -0.379  -0.121   1.428
    0.204  -0.650  -1.003   0.954   0.468  -1.054  -0.548   0.093   0.886  -0.317   0.597   0.055   0.166
   -0.849  -0.714   0.046   0.992   0.657   1.059  -0.051  -0.667   0.788   1.185   0.369   0.025   0.114
    0.013  -0.093  -0.296   0.615   0.997  -0.884  -0.436   1.018   0.240   0.631   0.127  -1.009  -0.982
   -0.934   0.164   1.287   0.830   0.987   0.659   0.935  -0.325  -0.524   1.284   1.139   0.908  -1.054

    0.600   0.107
    0.179  -0.214   0.270   0.981   0.632   0.395  -0.084   0.215   0.808   0.743  -0.063  -0.230  -0.333
   -0.062  -0.123   0.456   0.586   0.150   0.504   0.718  -0.069   0.625   0.760   0.093  -0.375  -0.923
   -0.037   0.270   0.502   0.227  -0.198   0.003   0.273   0.133   0.302  -0.121   0.243   0.187   0.115
   -0.297   0.425   0.765  -0.246   1.093   0.367  -0.600  -0.795  -0.639  -0.818  -0.206  -1.049  -0.430
    0.717   0.115   0.698   1.134   0.757   0.562  -0.567  -0.117   0.533  -0.748  -1.475  -1.163  -1.377
    0.039   1.235  -0.496   0.567   0.399   0.186   0.062   0.003  -0.309  -2.647  -0.560  -1.510  -1.609
    1.130   0.484  -0.423   0.191  -0.317  -0.002   0.107   0.130  -2.118  -1.335  -1.030  -0.770  -0.797
    0.560   0.745  -1.529  -1.153  -0.335  -0.030   0.948  -0.362  -0.449  -0.211  -0.751  -0.278  -0.423
   -0.636  -0.984  -1.933  -0.026   0.253  -1.634  -0.875  -0.112   0.119   0.502  -0.124  -0.040   1.281
   -0.421  -0.916  -0.341   0.403   0.627  -0.656  -1.429   0.271   0.481  -0.284   0.263   0.177   0.335
   -1.192  -0.399   0.705   0.975   0.887   0.582  -0.032  -0.798   0.445   0.766   0.185  -0.422  -0.543
    0.406  -0.154  -0.334   0.907   0.874  -0.669  -0.567   0.882  -0.204   0.430   0.688  -1.357  -1.526
   -0.966   0.294   0.713   0.666   1.321   0.486   0.489  -0.290  -0.525   0.971   1.086   0.679  -0.074

    0.650  -0.173
    0.089  -0.019   0.062   0.589   0.670   0.609   0.228  -0.308   0.541   0.194   0.432  -0.483  -0.097
   -0.217   0.191   0.861   0.618   0.353   0.541   0.700   0.298   0.777   0.985   0.488   0.039  -0.696
    0.045   0.697   0.807   0.071  -0.185   0.079   0.047   0.556   0.114  -0.393   0.205   0.224   0.008
    0.076   1.032   0.956  -0.086   1.152   0.194  -0.787  -0.478  -0.832  -0.426  -0.495  -1.155  -0.452
    0.852   0.610   0.890   1.098   0.558   0.679  -0.666  -0.240   0.210  -1.033  -2.040  -0.797  -2.044
   -0.009   0.858  -0.204   1.091   0.173   0.232   0.208  -0.069  -0.802  -2.648  -0.386  -1.153  -1.804
    1.787  -0.142  -0.237  -0.204  -0.786  -0.284  -0.173  -0.220  -2.027  -1.954  -0.313  -1.011  -0.898
    0.442   1.210  -1.189  -1.695  -0.711   0.625   1.240   0.612  -1.076  -0.728  -1.272   0.140  -0.245
   -0.738  -0.548  -1.992  -0.040  -0.307  -1.296  -1.007  -0.275  -0.240   0.018  -0.130   0.533   0.556
    0.210  -0.816  -1.134   0.399   0.452   0.154  -2.144   0.415   0.967  -0.243   0.139   0.358   0.145
   -1.133  -0.251   0.446   0.780   1.510   1.184  -0.032  -1.045   0.749   0.578  -0.712  -0.185  -0.520
    0.271  -0.465  -0.408   0.809   1.236  -0.106  -1.309  -0.662  -0.500  -0.353   0.182  -0.868  -1.748
   -0.870  -0.059   0.267   0.157   0.924   0.301   0.288  -0.542   0.052   0.638   1.430   0.545   0.048

    0.700   0.473
   -0.022   0.011   0.303   0.492   0.761   0.505   0.065  -0.030   0.676  -0.036   0.338  -1.085   0.132
   -0.469   0.304   0.449   0.305   1.018  -0.080   0.904   0.585   0.508   0.726   0.472  -0.256  -0.908
    0.522   0.547   0.919   0.018   0.170   0.012  -0.279   0.226   0.021  -0.545   0.382   0.171   0.233
    0.391   1.419   1.152   0.084   0.424   0.001  -1.087  -0.037  -0.753  -0.023   0.269  -0.972  -0.124
    0.496   1.229   0.774   1.238   0.993   0.682  -1.146   0.119   0.467  -1.268  -1.721  -1.214  -1.722
    0.164   0.373   0.263   1.274   0.311   0.047   0.790   0.479  -0.217  -2.701  -0.265  -1.196  -2.043
    1.513   0.277   0.475   0.013  -1.183  -0.617   0.473   0.262  -1.392  -1.500  -1.098  -1.225  -1.451
    0.312   0.980  -1.099  -0.726  -0.063   0.383   0.915   0.177  -0.619  -0.615  -0.564  -0.618  -0.281
   -0.495  -0.363  -1.646  -0.068   0.057  -1.146  -1.347  -0.526   0.060  -0.104  -0.362   0.972  -0.192
   -0.208  -0.688  -1.334   1.209   0.666   0.360  -1.977  -0.208   0.952   0.386   0.094   0.352   0.056
   -1.010  -0.544  -0.116   0.611   1.464   0.498  -0.248  -1.662   0.859   0.220  -0.619   0.161  -0.183
    0.337  -0.469  -0.212   0.539   1.897  -0.888  -1.522  -1.055   0.314   0.109   0.048  -0.408  -1.705
   -1.938  -0.027   1.166  -0.053   0.897   0.170   0.631  -0.424  -0.091   0.635   0.980   0.922   0.320

    0.750   0.863
   -0.226  -0.134   0.550   0.692   0.144   0.475  -0.158  -0.100   0.614   0.027   0.275  -0.965  -0.179
   -0.458   0.071   0.416   0.243   1.416   0.405   0.831   0.269   0.332   0.567   0.088  -0.142  -0.599
    0.433   0.719   0.917  -0.215   0.427   0.437   0.140  -0.092  -0.173  -0.866  -0.034   0.230   0.151
    0.458   1.092   1.392   0.371   0.039   0.134  -0.721  -0.724  -0.324   0.501   0.417  -1.149   0.329
    0.593   1.481   0.573   1.216   1.083   0.956  -1.077   0.009   0.191  -1.496  -1.313  -1.247  -1.624
    0.411  -0.222   0.604   1.126   0.271   0.191   1.303   0.553  -0.221  -2.432  -0.228  -1.076  -2.046
    1.459   0.486   0.928  -0.592  -0.866  -0.633   0.863   0.696  -1.153  -1.643  -1.139  -0.781  -1.514
    0.440   0.731  -1.329  -0.630  -0.159  -0.273   0.783   0.457  -0.376  -0.447  -0.691  -0.268  -0.514
    0.347  -0.206  -1.704   0.111   0.110  -1.014  -1.320  -0.416  -0.453   0.588  -0.381   0.854  -0.369
   -0.588   0.171  -0.774   1.013   0.873   0.554  -2.044  -0.381   0.666  -0.106   0.739   0.739   0.120
   -1.023  -0.571  -0.884   1.322   1.406  -0.002   0.376  -1.959   0.814   0.298  -0.358   0.502   0.172
    0.446  -1.108  -0.257   1.078   2.172  -0.760  -1.170  -0.983   0.510   0.543  -0.396  -0.111  -1.338
   -1.324   0.843   1.027   0.575   1.070   0.113   0.582  -0.437  -0.748   0.823   0.956   0.796   0.365

    0.800   1.275
   -0.377  -0.515   0.362   0.572  -0.282   0.157   0.059   0.097   0.333  -0.248   0.583  -0.324  -0.164
   -0.328  -0.246   0.575  -0.164   1.328   0.862   0.419   0.730   0.537   0.067  -0.629  -0.036  -0.654
    0.811   1.356   0.695   0.378   0.408   0.745   0.322  -0.644   0.294  -0.572  -0.261   0.255   0.547
    0.888   1.246   1.478   0.495   0.410  -0.047  -0.133  -1.097  -0.327   0.465   0.276  -1.039   0.704
   -0.034   0.877   1.170   1.315   1.893   1.529  -1.072  -0.141   0.444  -1.133  -1.133  -1.391  -1.851
    0.273   0.421   0.978   1.087   0.578   0.263   1.054   0.314  -0.396  -2.296  -1.031  -0.274  -2.204
    1.442   0.331   1.211  -0.549  -0.763  -0.523   1.275   0.416  -1.135  -1.635  -0.780  -0.741  -1.429
    1.053   1.023  -1.156  -0.015  -0.079  -0.025   1.176   0.536  -0.992  -0.533  -0.913   0.013  -0.316
    0.238  -0.549  -1.663   1.093   0.271  -1.025  -1.759  -1.382  -0.831   1.362   0.018   0.898  -0.757
   -1.018   0.242  -0.789   1.550   1.201   0.236  -1.357  -0.546   1.305  -0.100   0.561   0.718  -0.268
   -0.571  -0.397  -1.114   0.957   1.387   0.536   0.414  -1.211   0.355   0.314  -0.081   0.619   0.275
   -0.045  -0.587   0.430   1.661   1.572  -0.876  -0.692  -0.875   0.379   0.423   0.052  -1.035  -1.708
   -0.958   0.805   0.715   0.874   0.197   0.063   0.168  -0.899  -0.406  -0.038   0.632   0.462  -0.749

    0.850   1.555
   -0.417  -0.543   0.695   0.804  -0.073  -0.112  -0.002   0.389   0.529  -0.054   0.494  -0.130  -0.059
   -0.137   0.373   0.623  -0.430   1.182   0.503   0.150   0.665   0.886   0.044  -0.936  -0.008  -0.413
    0.768   1.263   0.943   0.351  -0.088   0.327   0.355  -0.879  -0.066  -0.050  -0.056   0.058   0.096
    0.756   0.808   2.028   0.256   0.386   0.300  -0.619  -1.418  -0.222   0.328  -0.158  -0.789   0.428
   -0.399   1.230   0.750   1.061   1.915   1.201  -1.248   0.274  -0.151  -1.385  -0.561  -1.413  -1.910
    0.708   0.245   0.698   0.547   0.593   0.902   0.418   0.443  -0.198  -2.813  -0.724  -0.294  -2.278
    1.059   0.674   0.721  -0.654  -0.274  -1.023   1.555   0.499  -1.220  -1.628  -0.759  -0.864  -1.498
    1.005   0.396  -0.868   0.554   0.240   0.715   1.415   0.947  -0.809  -0.363  -0.532   0.170  -0.573
    0.039  -0.776  -0.996   1.265   0.182  -1.755  -1.820  -0.959  -0.483   0.976  -0.023   0.667  -1.542
   -0.741  -0.194  -0.695   0.865   0.622  -0.073  -1.008  -1.176   1.752   0.162  -0.108   0.594   0.294
   -1.379  -0.531  -1.492   1.133   1.139   0.535   0.608  -0.779   0.180   0.666  -0.022   0.655  -0.024
   -0.478   0.658   0.046   1.331   1.253  -0.360  -0.133  -0.360   0.242   0.812  -0.135  -0.928  -1.519
   -0.511   0.464   0.270   0.176   0.295   0.385   0.204  -0.707  -0.987  -0.437   0.923  -0.353  -0.719

    0.900   1.406
   -0.632  -0.230   0.679   0.674  -0.881   0.079  -0.304   0.180   0.236  -0.195   0.320  -0.238   0.104
   -0.124   0.953   0.811  -0.618   1.075   0.358  -0.210   0.184   0.940  -0.677  -0.718  -0.341  -0.166
    0.570   1.723   0.930   0.790  -0.139   0.321   0.232  -0.960   0.243  -0.528  -0.250  -0.475  -0.032
    0.774   0.994   1.612   0.664   0.380   0.037  -0.204  -0.938  -0.495  -0.092  -0.109  -0.783  -0.075
   -0.420   1.495   0.579   1.261   1.655   1.370  -0.978   0.156  -0.031  -1.358  -0.572  -1.208  -1.989
    0.513   0.402   0.856   0.355   0.543   1.076   0.517   0.809  -0.333  -2.866  -0.283  -0.722  -2.300
    1.103   1.023   1.032  -0.162  -0.486  -0.921   1.406   0.601  -0.972  -1.289  -0.743  -0.743  -1.278
    0.807   0.355  -0.424   1.037  -0.288   0.288   1.115   0.926  -0.734  -0.059  -0.163   0.560  -0.475
    0.349  -0.179  -0.879   1.668   0.119  -1.336  -1.648  -0.570  -0.590   1.090   0.103   0.159  -1.197
   -0.633  -0.051  -0.370   0.771   0.499  -0.278  -1.285  -1.344   1.328   0.212  -0.114   0.211  -0.225
   -1.082  -1.164  -1.055   1.023   1.404   0.499   0.364  -0.224   0.436   0.717  -0.008   1.001  -0.443
   -0.310   0.910  -0.340   1.124   0.445  -0.187   0.214  -0.722   0.890   0.559  -0.953  -1.098  -0.981
    0.307   0.199  -0.288   0.474  -0.202  -0.251  -0.065  -0.609  -0.677  -0.448   1.034  -0.334  -1.185

    0.950   1.020
   -0.435  -0.204   0.640   0.498  -0.813  -0.058   0.146   0.366   0.267   0.027   0.053  -0.288   0.496
   -0.276   1.431   0.672  -0.445   1.021   0.224  -0.136   0.086   0.767  -0.900  -0.748  -0.408   0.282
   -0.176   1.543   1.033   0.602   0.280   0.448   0.206  -0.868   0.247  -0.871  -0.553  -0.981   0.052
    1.036   0.470   1.114   0.792   0.685  -0.143  -0.473  -1.301  -0.668  -0.820  -0.649  -1.485   0.022
    0.036   1.254   0.409   1.365   1.669   1.490  -0.638  -0.069  -0.082  -1.478  -0.590  -0.821  -1.732
    0.651   0.895   1.629   0.149   0.633   0.519   1.041   0.417  -0.575  -2.133  -0.256  -0.943  -2.121
    1.446   0.915   0.949   0.494  -0.408  -1.084   1.020   0.614  -0.885  -1.028  -0.872  -0.837  -1.588
    0.976   0.854  -1.070   0.100  -0.566   0.138   0.822   0.288  -0.456   0.141  -0.601   0.457  -1.256
    0.680  -0.717  -0.744   2.003   0.421  -1.458  -1.364  -0.123  -0.635   0.689   0.906  -0.048  -1.865
   -0.571  -0.409   0.277   0.222   0.583  -0.270  -0.318  -0.922   1.016  -0.504  -0.244  -0.318  -0.572
   -0.838  -1.812  -0.578   0.623   0.931   0.821  -0.010  -0.509   0.494   0.517  -0.022   0.121   0.105
   -0.332   1.513  -0.269   1.131  -0.043  -0.375  -0.224  -1.158   0.557   1.137  -1.172  -0.740  -1.046
    0.827   0.687  -0.943   0.605  -0.981  -0.713   0.040  -0.638   0.011  -0.075   0.592  -0.016  -2.299

    1.000   0.882
   -0.394  -0.199   0.700   0.655  -0.662   0.192   0.387   0.332   0.771  -0.078   0.625  -0.287   0.359
   -0.266   1.029   0.199  -0.514   1.243   0.380   0.114  -0.024   0.395  -1.050  -0.560   0.243   0.347
    0.274   1.706   0.808   1.124   0.199   0.090  -0.102  -0.499  -0.115  -0.923  -0.723  -0.937   0.306
    0.880   0.630   0.589   0.132   1.057  -0.211  -0.107  -0.924  -0.255  -0.906  -0.363  -1.617   0.059
    0.623   1.606   0.163   1.914   1.901   1.020  -0.625   0.032  -0.450  -1.670  -1.046  -0.934  -1.071
    0.966   1.429   1.783   0.224   0.697   0.087   0.311  -0.228  -0.329  -1.330  -0.332  -0.510  -1.993
    1.483   0.804   1.148   0.051   0.277  -1.082   0.882  -0.047  -1.402  -0.688  -0.714  -0.999  -2.135
    1.046   1.002  -1.150  -0.219   0.190   0.456   0.983   0.302  -0.218  -0.342  -0.538  -0.053  -0.915
    1.515  -0.469  -0.775   1.518   0.175  -0.974  -0.905  -0.294   0.550   0.022   0.605  -0.205  -1.427
   -1.053  -0.309   0.627  -0.391   0.434  -0.055   0.099  -0.049   1.013   0.426  -0.974  -0.250   0.127
   -0.857  -1.531   0.304   0.352   0.623   0.622   0.197  -0.789   0.096   0.310   0.568  -1.254  -0.088