
This full-field turbulence file was generated by TurbSim (v2.00.01a-bjj, 14-Oct-2014) on 14-Oct-2014 at 12:52:53.

 | u-comp |  Y  x  Z  | Grid Resolution (Y x Z) | Time-step | Hub Elev | Mean U |
            13    13      6.667      6.667          0.050      84.29     13.50

 Z Coordinates (m):
  -40.000 -33.333 -26.667 -20.000 -13.333  -6.667   0.000   6.667  13.333  20.000  26.667  33.333  40.000

 Y Coordinates (m):
  -40.000 -33.333 -26.667 -20.000 -13.333  -6.667   0.000   6.667  13.333  20.000  26.667  33.333  40.000

    0.000  14.746
   15.649  16.033  16.892  17.076  15.477  14.488  14.005  13.741  14.608  14.008  15.546  15.378  15.466
   14.934  16.387  15.516  15.816  15.389  12.701  14.809  13.721  13.022  13.881  13.955  14.213  14.935
   16.412  14.577  14.238  14.043  14.551  13.209  13.643  14.369  14.651  15.159  14.994  14.478  14.847
   14.225  16.868  16.253  15.451  14.620  13.317  13.936  14.302  15.455  15.227  16.267  15.051  13.777
   15.333  14.404  13.961  14.524  13.894  13.220  14.134  15.208  15.661  15.973  16.639  14.613  13.723
   14.331  15.121  15.864  14.874  13.410  13.201  15.135  14.880  15.709  16.575  15.383  14.592  13.850
   14.572  13.992  13.776  13.292  15.873  15.001  14.746  12.384  13.917  15.063  14.731  14.908  15.351
   14.785  14.873  14.073  14.123  14.803  14.607  13.125  14.885  14.343  14.196  13.207  12.639  13.877
   14.304  15.827  15.802  15.231  15.219  14.568  13.893  14.127  14.127  14.483  13.341  13.850  12.207
   14.477  14.425  16.707  14.569  15.050  14.247  13.268  13.846  13.496  13.921  13.502  13.579  13.080
   13.382  13.222  15.324  15.688  14.130  12.828  13.685  13.582  12.996  12.930  14.178  13.524  12.497
   11.332  11.357  13.548  12.514  14.129  13.496  12.466  13.446  12.194  12.787  13.712  12.232  13.008
   10.765  11.306  13.460  14.144  13.051  14.064  14.050  12.126  11.952  12.752  12.531  11.265  12.197

    0.050  14.899
   15.629  15.996  16.185  17.148  15.391  14.397  14.218  13.663  14.522  13.458  15.153  15.105  15.725
   14.849  16.279  15.456  16.013  15.610  12.854  14.566  14.177  13.193  13.882  14.316  14.720  14.937
   16.895  14.644  14.106  14.122  14.214  12.703  13.229  14.823  14.745  14.882  15.013  14.526  14.805
   14.034  16.831  16.458  14.748  14.389  13.347  13.727  14.613  15.457  15.411  16.016  14.946  13.300
   15.443  14.010  14.348  14.287  14.286  13.259  14.348  14.757  15.489  15.859  16.500  14.951  13.969
   14.234  15.454  15.584  14.513  13.489  13.752  15.537  15.228  15.710  16.737  16.063  15.072  14.147
   14.413  14.199  13.448  12.997  15.014  14.403  14.899  12.335  14.020  15.387  14.706  15.059  15.069
   15.091  14.632  13.546  14.468  14.312  14.403  13.218  14.519  14.853  13.882  13.252  13.068  14.072
   15.309  15.725  15.675  15.238  14.804  14.392  14.816  14.403  14.663  14.977  12.962  13.494  12.451
   14.701  14.464  16.686  14.298  15.393  14.437  13.390  14.315  13.423  13.752  14.172  13.707  13.109
   12.930  13.180  15.637  15.715  14.010  13.822  13.222  13.688  12.821  13.550  14.114  13.219  12.688
   10.488  10.696  13.892  12.841  14.198  13.596  12.203  13.476  12.100  12.342  13.799  12.245  13.114
   11.135  10.912  13.831  13.536  13.449  13.233  13.962  12.519  11.503  12.052  11.962  11.460  12.114

    0.100  14.156
   15.527  16.002  16.561  16.994  15.333  14.479  14.106  13.942  14.592  13.677  15.125  15.332  16.361
   15.539  16.007  15.900  16.377  16.028  12.445  15.068  14.455  14.049  14.027  14.129  15.120  14.962
   17.496  14.575  14.269  14.488  14.233  13.112  12.830  14.770  14.941  14.694  15.295  14.541  14.505
   14.162  16.281  15.982  14.718  14.395  13.516  13.633  14.250  15.916  15.196  15.476  14.816  13.815
   15.388  13.664  14.530  13.977  14.200  13.984  14.742  14.308  15.326  15.799  15.990  14.880  13.848
   13.967  14.548  15.353  13.954  13.479  14.497  15.287  14.501  15.597  16.309  15.646  14.872  14.183
   14.173  13.357  13.255  13.244  15.045  14.427  14.156  12.142  13.681  15.364  15.242  15.308  15.240
   15.259  14.444  13.354  14.012  14.279  13.876  13.497  13.844  15.073  14.578  13.578  13.074  14.315
   15.623  15.310  15.404  14.993  13.666  15.293  14.809  15.194  15.007  14.579  12.677  13.583  12.568
   14.783  14.271  16.142  14.679  15.099  14.855  13.375  15.394  13.821  13.504  14.171  13.319  13.075
   13.189  13.546  15.742  15.284  14.211  13.868  12.727  12.964  12.862  13.413  13.695  13.544  12.719
   10.584   9.882  13.977  12.797  14.096  13.942  12.100  12.754  12.671  12.615  14.602  13.157  13.810
   11.340  10.654  13.505  13.739  13.103  13.079  14.524  12.829  11.756  11.443  12.387  11.460  12.606

    0.150  13.934
   15.551  15.589  16.571  16.780  16.005  14.575  14.294  13.667  14.333  14.359  15.117  15.446  16.675
   15.360  16.011  16.032  16.417  15.984  12.899  15.392  14.628  14.795  14.301  14.135  14.958  14.445
   17.438  15.062  13.953  14.587  14.445  12.752  13.232  14.532  14.476  14.966  15.057  14.801  14.797
   14.642  16.386  15.245  14.835  14.270  13.535  13.163  14.626  15.252  15.120  15.788  14.895  13.617
   15.079  13.453  14.468  13.474  13.720  14.317  14.861  14.282  15.564  15.948  16.223  14.984  14.146
   14.208  13.973  15.319  13.827  12.843  14.855  15.143  14.865  16.195  16.101  16.126  15.043  14.733
   14.343  13.962  13.496  13.592  15.479  14.454  13.934  12.739  13.945  15.623  14.927  14.352  15.198
   15.182  14.415  13.147  13.774  14.592  13.812  13.415  14.191  15.062  14.076  13.416  13.337  14.350
   15.224  15.692  15.465  15.251  13.450  15.284  14.570  15.412  15.120  14.099  12.773  13.796  12.269
   15.261  13.952  16.520  14.663  14.566  14.358  12.799  14.650  13.519  13.872  13.745  13.549  12.853
   13.738  13.107  16.184  15.503  13.486  13.988  12.611  13.089  13.028  13.299  13.926  13.106  12.726
   10.812   9.873  13.589  13.266  14.775  14.290  11.701  13.400  13.278  13.269  15.024  13.801  13.881
   11.474  10.920  13.423  13.713  12.815  13.733  14.354  13.267  12.312  11.838  12.648  11.306  11.956

    0.200  14.338
   15.483  15.903  16.490  16.806  16.107  14.746  14.527  13.569  14.079  14.372  15.071  15.686  16.299
   15.220  16.033  16.447  16.487  15.814  12.933  15.248  14.258  14.460  14.649  14.084  15.128  14.336
   17.156  14.873  14.008  14.237  14.523  12.911  14.186  14.524  14.378  14.971  15.015  14.908  15.229
   15.042  16.511  15.727  14.709  14.440  13.399  13.318  15.349  15.742  14.784  15.914  15.582  13.759
   15.054  13.240  14.214  13.571  13.371  14.287  14.647  14.819  15.528  16.234  15.673  15.730  14.111
   13.818  13.655  15.384  14.027  13.091  14.808  15.382  14.891  16.253  15.990  16.262  14.154  14.434
   14.365  14.049  13.870  13.470  15.573  14.698  14.338  13.087  14.539  15.909  14.739  14.518  14.739
   14.887  14.315  12.832  13.483  14.910  13.695  13.342  14.111  15.179  14.045  13.167  13.027  13.787
   14.246  15.275  15.492  15.412  14.010  15.251  14.397  15.000  15.288  13.869  12.609  13.423  12.293
   15.384  14.021  16.629  14.119  14.672  14.568  13.342  13.954  13.720  14.038  13.519  13.658  12.946
   13.731  13.790  16.503  15.067  13.534  14.234  12.824  13.083  12.777  12.900  14.445  13.299  13.173
   10.481  10.046  13.535  13.421  14.451  14.330  11.744  13.716  13.662  12.831  15.236  13.506  13.508
   11.178  11.361  12.803  13.485  12.194  13.998  14.688  13.229  12.698  11.994  12.603  11.352  11.096

    0.250  14.022
   15.707  15.669  16.941  17.319  16.097  14.802  14.390  14.219  14.129  14.361  15.430  15.757  16.221
   15.516  16.267  16.405  16.501  15.288  13.080  15.243  13.696  13.947  14.907  14.338  15.463  14.538
   16.585  14.700  13.815  13.727  14.211  12.672  14.278  14.871  14.280  14.778  14.414  14.908  15.040
   14.999  15.743  15.592  14.401  14.387  13.073  13.961  15.985  16.000  14.991  15.777  15.602  14.311
   15.906  13.170  14.211  14.628  13.230  15.078  14.661  14.652  15.590  16.473  15.315  16.077  14.417
   13.880  13.508  14.988  14.198  13.631  15.010  15.135  14.216  15.554  16.021  15.984  14.422  15.191
   14.189  14.457  13.641  13.526  15.160  15.053  14.022  13.575  14.813  16.067  14.885  15.083  15.123
   14.942  13.919  12.520  13.561  14.742  13.581  13.212  13.995  14.783  14.297  12.218  12.975  13.776
   15.284  14.592  15.465  15.159  14.848  14.409  14.273  15.018  15.153  14.124  12.688  13.033  12.429
   15.101  14.638  16.290  14.432  14.081  14.886  12.991  13.276  13.649  14.127  13.498  13.535  12.458
   13.550  13.436  17.251  14.260  12.721  14.015  13.103  13.968  13.014  12.701  14.359  12.722  13.371
   10.195   9.957  13.570  13.169  14.282  13.977  12.249  13.709  13.419  12.281  14.523  13.140  13.406
   11.578  10.965  12.528  14.154  12.132  13.636  14.795  13.638  13.599  11.936  12.528  11.732  11.471

    0.300  13.942
   15.608  15.436  16.921  17.500  16.017  15.048  13.827  14.234  13.666  14.557  15.560  15.288  16.352
   15.932  16.279  16.117  16.030  15.437  13.498  14.905  13.986  13.750  14.860  14.568  15.605  14.589
   16.574  14.109  13.477  13.809  14.989  12.484  14.211  14.758  14.290  15.102  15.111  15.235  14.989
   14.948  15.160  15.649  14.431  14.286  13.317  13.995  15.796  15.281  15.203  15.593  15.253  14.480
   16.012  13.493  14.268  14.541  13.967  14.969  15.100  14.784  15.708  16.432  15.931  16.162  14.405
   13.612  13.558  14.506  14.276  13.407  14.964  13.874  14.172  15.410  16.670  16.119  14.767  15.878
   14.289  14.574  13.374  13.626  15.823  14.424  13.942  13.602  15.027  16.169  14.658  15.364  15.592
   14.737  14.726  12.605  13.560  15.036  13.421  12.823  13.688  14.400  14.888  12.008  13.211  14.170
   15.245  14.420  14.665  14.997  14.212  14.293  14.378  15.318  16.084  14.254  12.529  13.035  12.374
   14.962  14.756  16.062  14.653  13.613  14.668  12.863  13.487  13.753  14.058  13.725  13.645  12.177
   13.804  13.471  17.142  14.642  12.578  14.807  12.679  12.937  12.802  13.281  13.704  12.071  13.789
   10.342   9.908  13.420  13.224  14.381  13.764  11.786  13.601  13.919  12.635  13.626  13.311  13.817
   11.453  10.422  12.274  14.155  12.615  13.372  15.264  13.087  13.671  12.206  11.803  12.037  11.901

    0.350  13.574
   15.831  15.260  16.944  17.930  16.057  14.719  13.680  14.117  13.712  14.848  15.688  14.784  16.143
   15.724  16.086  15.721  15.470  15.723  13.417  14.795  13.704  13.859  14.939  14.726  15.976  15.097
   16.171  14.067  14.059  14.088  15.277  12.762  13.942  14.615  14.579  14.905  15.329  14.930  14.028
   14.769  15.248  15.490  14.622  14.339  13.640  13.298  15.789  15.784  15.541  15.537  14.932  14.722
   15.185  13.475  13.907  14.660  14.379  14.894  15.068  15.094  15.250  16.423  15.832  16.303  14.957
   13.703  13.628  14.327  13.920  12.757  14.894  13.759  13.867  15.974  17.064  15.587  15.215  15.607
   14.131  14.565  12.926  13.909  15.471  14.828  13.574  13.594  15.342  16.456  13.944  15.466  16.186
   14.466  14.863  12.879  13.623  15.325  12.689  11.840  13.753  14.258  14.577  11.692  12.448  14.561
   15.219  14.532  15.302  14.570  13.781  14.530  14.372  14.961  15.873  13.988  12.472  12.477  12.779
   14.918  14.554  16.267  15.268  13.945  15.322  12.679  13.592  13.716  14.322  13.791  13.185  11.973
   13.958  14.128  16.605  14.488  12.305  14.629  12.652  13.113  12.254  13.786  13.039  11.889  13.376
   10.479  10.094  13.669  12.981  14.136  13.573  11.668  13.059  14.218  13.061  13.667  13.340  13.697
   11.235  10.807  12.080  14.334  12.511  14.035  14.392  12.115  13.642  12.620  11.429  12.423  12.485

    0.400  13.533
   15.710  15.151  17.419  17.289  16.297  14.544  13.602  14.198  13.600  14.320  15.585  14.914  16.044
   15.339  15.996  15.453  15.348  15.401  13.733  14.655  13.478  14.190  14.554  15.163  15.888  14.760
   15.978  14.907  14.008  14.282  15.049  13.307  13.861  14.866  15.088  14.972  15.906  15.039  13.618
   14.583  15.516  14.970  14.198  13.683  12.914  13.876  16.080  15.813  15.629  15.657  15.389  14.430
   14.762  13.555  13.984  14.484  14.150  14.453  15.032  14.877  15.081  16.914  15.831  16.010  15.568
   14.111  13.697  13.940  13.889  12.783  14.968  14.299  12.965  15.772  16.746  15.628  14.513  15.370
   14.012  14.753  12.873  13.757  15.118  15.064  13.533  13.843  15.306  16.577  13.618  15.424  15.992
   13.895  14.105  13.276  13.234  15.586  13.517  12.763  13.935  14.103  14.760  12.505  12.558  14.564
   15.241  14.672  15.314  14.910  13.472  14.509  14.459  14.479  15.094  13.122  12.426  12.145  12.780
   14.955  14.940  16.713  14.898  13.648  14.582  13.067  13.422  13.448  13.829  13.065  13.357  11.655
   14.152  14.207  16.911  13.747  11.985  14.803  11.992  13.457  11.794  13.563  13.393  12.067  13.120
   11.018  11.269  13.632  13.417  13.521  13.770  11.365  12.882  13.534  12.957  13.843  13.683  14.104
   11.265  10.979  11.788  13.485  12.945  14.200  13.965  11.911  12.824  12.083  11.409  12.104  12.508

    0.450  13.513
   15.421  15.771  17.685  17.158  16.221  14.374  14.193  14.207  13.434  14.167  15.839  15.075  16.410
   14.875  16.144  15.686  16.124  15.413  13.664  14.618  13.642  14.371  14.889  14.996  15.804  15.427
   16.197  15.345  14.202  14.370  15.184  13.396  14.298  14.919  15.065  14.787  15.476  14.914  13.665
   14.281  16.110  14.829  14.029  14.170  13.063  13.938  15.604  15.436  15.637  16.002  15.731  14.084
   14.462  13.550  13.877  14.449  14.403  14.468  15.060  15.180  15.074  16.323  15.878  14.890  15.478
   13.952  13.461  13.699  13.831  12.954  14.854  14.595  13.517  15.224  16.770  15.801  15.334  15.812
   14.056  14.295  13.266  14.491  14.948  14.866  13.513  13.189  15.383  16.141  13.701  15.252  15.924
   13.863  13.681  12.501  13.648  15.413  13.280  12.902  13.894  14.925  14.723  12.709  12.885  15.261
   15.168  14.411  15.393  14.102  13.651  14.186  14.673  14.698  15.425  13.312  13.057  12.956  13.524
   14.875  15.369  16.649  14.403  13.538  13.988  14.275  13.304  13.403  14.098  13.099  12.890  10.956
   14.513  13.801  16.883  13.295  12.224  14.597  12.625  13.274  11.661  12.907  13.849  12.145  12.684
   11.229  10.987  13.857  12.945  13.579  13.382  11.684  12.900  13.395  13.276  13.802  14.201  12.824
   11.033  10.243  11.923  13.125  12.421  13.662  13.107  12.080  13.333  12.812  11.378  12.780  12.426

    0.500  13.388
   15.526  15.579  17.702  16.760  16.019  14.469  14.277  14.320  13.368  13.991  15.860  14.658  15.984
   15.236  16.177  16.088  16.416  15.269  13.701  14.720  13.527  14.248  15.237  14.635  15.773  15.676
   15.887  15.218  14.143  14.332  15.361  13.293  14.477  14.724  14.415  14.506  15.764  14.685  13.850
   13.771  15.916  15.050  13.473  13.818  13.671  13.525  16.113  14.852  16.239  16.351  15.483  14.351
   14.754  13.464  13.889  14.329  14.187  13.863  14.957  15.103  15.054  15.951  15.596  14.469  14.890
   14.481  13.718  14.337  14.133  13.156  14.445  14.395  13.827  15.142  16.433  15.321  15.101  15.531
   13.979  14.235  13.143  13.740  15.140  14.397  13.388  12.855  15.430  16.460  14.635  14.982  15.898
   13.800  13.588  13.140  13.598  14.822  13.120  13.453  14.336  15.544  15.115  12.695  12.153  15.865
   14.857  14.199  16.341  14.235  14.167  15.521  14.374  14.504  15.332  12.523  13.924  13.331  12.751
   15.188  15.484  17.321  14.448  13.309  14.431  14.292  13.362  13.281  13.595  13.312  13.024  10.440
   14.853  14.157  16.560  13.248  12.051  14.091  12.724  12.255  12.112  12.401  13.934  12.072  12.564
   10.805  11.420  13.524  12.932  13.381  13.443  11.940  12.464  13.621  12.574  12.826  13.696  12.671
   10.893  10.501  11.315  12.643  11.863  13.262  13.270  12.796  13.564  12.456  11.962  13.208  12.395

    0.550  13.452
   15.316  15.788  17.219  17.006  15.943  14.193  14.432  14.323  12.958  14.346  15.687  14.574  15.863
   15.427  16.563  16.265  16.238  14.991  13.939  14.547  13.577  14.248  15.135  14.761  15.627  15.721
   16.068  15.612  14.737  14.162  15.348  13.217  14.201  14.588  14.577  14.328  15.769  14.642  13.959
   14.427  15.873  15.340  13.605  13.917  13.249  13.585  16.330  15.546  15.692  15.598  16.032  14.049
   14.405  13.540  13.643  14.398  13.685  13.960  14.682  14.992  15.438  16.182  15.211  15.535  15.203
   14.934  13.658  15.055  14.548  13.209  14.624  14.593  14.240  15.181  16.249  14.915  15.397  15.703
   13.888  14.290  13.641  14.212  15.433  14.697  13.452  13.031  14.914  16.141  14.605  15.590  15.528
   14.127  13.948  13.392  13.228  14.276  13.525  14.207  15.080  15.182  14.529  12.692  12.423  15.520
   14.672  14.176  16.466  14.803  13.631  15.836  14.890  14.248  15.213  12.854  13.429  12.618  12.573
   14.728  15.074  16.758  14.553  12.790  14.260  14.246  13.611  12.823  13.744  12.614  12.985  10.420
   15.061  14.403  16.299  13.316  11.792  13.465  11.450  12.408  12.431  12.354  13.472  11.910  11.639
   10.956  11.672  13.249  12.738  13.200  12.656  12.410  12.514  13.463  13.008  13.080  13.605  12.244
   11.351  10.842  11.257  12.790  12.408  12.939  13.292  12.489  13.675  12.564  11.794  13.105  12.417

    0.600  13.922
   15.718  15.922  16.930  17.081  16.028  14.884  14.759  14.473  13.233  14.601  15.766  14.485  15.691
   15.726  16.961  16.263  16.435  15.028  13.827  14.198  13.546  14.102  15.029  14.154  15.899  16.060
   16.240  15.589  14.793  14.229  15.065  13.457  13.893  15.045  15.133  14.255  16.033  14.837  13.750
   14.890  15.796  15.199  13.744  14.001  13.026  13.990  16.010  15.408  15.514  15.943  15.410  14.164
   13.510  13.334  13.728  14.259  14.398  13.699  15.055  14.820  14.901  16.282  15.426  15.868  14.970
   15.238  13.016  15.329  14.520  13.709  13.864  14.248  13.824  15.129  16.295  15.055  16.329  15.087
   13.295  14.488  13.597  14.287  15.215  14.576  13.922  13.225  15.123  16.053  14.248  15.515  15.475
   13.845  13.398  13.848  13.088  14.550  13.317  14.524  14.729  14.158  14.335  12.968  12.416  14.978
   15.092  14.649  15.602  14.987  13.645  15.544  15.012  14.022  15.165  13.318  12.924  12.998  12.992
   15.435  14.959  16.009  14.585  13.694  13.680  14.494  14.224  12.561  13.816  13.001  13.122  11.087
   14.321  15.131  16.319  13.889  11.476  12.922  11.171  11.852  12.229  12.523  13.410  10.984  11.793
   10.874  11.584  13.703  12.985  13.763  12.967  12.939  12.048  13.337  13.387  12.615  13.712  12.392
   11.834   9.951  11.555  12.577  12.475  13.429  13.408  12.552  13.347  12.870  11.604  13.545  12.058

    0.650  14.923
   15.173  16.142  16.935  17.096  16.340  15.102  14.390  14.865  12.916  14.471  15.664  14.878  15.503
   15.432  16.662  16.101  16.651  14.784  14.053  13.936  13.964  13.959  14.802  13.908  15.866  15.862
   16.412  15.350  14.306  14.059  14.927  12.875  13.198  15.997  14.777  14.065  16.128  14.713  14.134
   15.044  16.085  15.268  14.161  14.044  13.032  14.520  16.135  15.695  15.609  15.648  15.192  14.120
   13.043  13.033  13.924  14.298  14.590  14.418  14.759  15.383  15.155  16.374  15.811  15.354  14.312
   14.818  13.018  14.829  14.157  13.320  14.003  13.929  14.369  15.328  16.405  15.270  15.857  14.408
   13.214  14.608  12.811  14.238  15.352  14.493  14.923  13.840  14.914  16.522  14.309  15.292  15.368
   13.717  13.066  14.255  12.769  14.287  14.009  13.906  14.291  14.373  15.184  13.668  12.738  15.240
   15.053  14.355  15.407  15.328  13.822  15.346  15.089  14.429  15.699  12.989  12.892  13.153  13.101
   15.854  15.096  16.303  14.138  13.801  13.200  14.599  14.056  12.379  13.826  13.530  13.363  11.651
   14.630  14.705  16.873  13.532  11.072  12.372  11.009  11.715  12.696  12.802  13.460  11.245  11.483
   11.360  11.820  13.192  13.753  13.263  13.005  13.120  12.972  13.470  13.127  12.163  12.882  11.936
   11.230   9.977  11.454  12.190  13.023  13.600  13.849  12.897  13.200  13.209  11.613  13.584  12.076

    0.700  14.633
   15.326  16.387  16.805  17.132  15.655  14.900  14.752  15.101  13.002  14.349  15.855  15.348  15.475
   16.046  16.417  16.145  16.772  14.610  14.704  13.683  13.815  14.060  14.870  14.354  16.083  15.968
   15.727  15.749  14.512  14.407  14.785  12.534  13.469  16.050  14.901  14.253  15.876  14.723  13.893
   14.938  16.640  15.201  14.228  14.197  12.743  14.476  15.970  15.418  15.872  15.246  15.608  13.863
   12.880  12.946  13.926  13.775  14.156  14.567  14.774  16.001  15.404  17.196  16.043  15.195  14.515
   14.476  13.187  14.437  13.395  13.304  14.937  13.682  13.859  15.102  16.626  15.104  16.050  15.023
   14.223  15.189  13.273  14.394  15.096  14.743  14.633  14.077  14.329  16.108  14.277  15.255  15.641
   13.489  13.084  14.331  12.322  14.339  13.851  14.720  14.203  14.626  15.731  13.401  12.906  15.159
   14.543  14.157  15.518  15.394  14.576  15.509  15.057  13.769  15.798  13.057  13.122  12.587  13.070
   15.583  14.933  15.917  14.110  13.211  13.048  14.796  13.846  11.543  13.684  12.945  13.616  11.950
   15.518  14.727  16.614  14.434  11.362  12.487  10.207  12.552  12.956  13.289  12.537  11.054  11.184
   11.906  11.660  13.095  12.972  11.934  13.448  13.916  12.385  13.542  12.670  11.807  12.552  11.931
   11.760  10.433  11.682  12.523  12.781  13.942  13.109  12.865  13.015  13.334  11.565  13.227  12.553

    0.750  14.367
   15.557  16.455  16.411  17.072  16.030  14.970  15.301  15.067  13.511  13.918  15.775  15.182  15.453
   16.615  16.677  15.786  16.512  14.836  14.474  13.863  13.655  14.332  14.790  14.543  16.314  16.367
   15.903  15.996  14.629  14.712  14.133  12.860  13.417  16.215  14.727  14.466  15.791  14.884  13.756
   15.660  16.806  15.271  14.633  14.738  12.739  14.016  15.402  15.657  15.714  15.639  15.951  14.234
   12.995  12.597  14.367  14.263  14.119  13.644  14.852  15.780  15.250  17.344  15.670  15.475  14.656
   14.347  13.093  13.993  13.936  13.591  14.825  13.906  14.050  15.362  16.351  14.984  16.389  14.968
   14.196  14.909  13.776  14.642  14.997  14.700  14.367  14.181  14.472  15.886  14.037  14.755  16.093
   13.504  13.909  14.509  12.701  13.559  13.890  14.878  14.429  14.691  15.657  12.976  12.448  15.661
   14.303  13.558  15.164  15.422  14.562  15.403  15.599  13.321  16.428  12.256  12.420  12.285  13.598
   15.229  15.161  16.029  13.766  13.212  13.249  15.144  14.281  11.118  14.618  12.664  14.209  11.861
   15.048  14.808  16.411  14.486  10.872  13.356  10.742  12.848  13.114  13.047  12.580  11.262  11.696
   11.781  11.683  13.662  13.183  11.819  13.892  13.388  13.244  13.320  12.558  11.427  12.645  12.025
   11.112   9.769  11.685  13.316  13.263  14.014  12.837  12.485  12.798  12.917  11.600  13.125  11.692

    0.800  13.513
   15.950  16.621  16.574  16.840  16.299  15.137  15.441  15.000  13.816  13.589  15.286  15.326  15.055
   16.168  16.589  16.120  17.242  15.171  14.586  13.885  13.984  14.411  14.760  14.759  16.267  16.546
   15.689  15.706  15.182  15.201  14.373  13.145  13.317  15.458  14.645  14.350  15.733  15.163  13.875
   15.451  16.599  14.916  14.817  14.453  13.196  13.670  15.741  15.247  15.157  15.136  15.953  14.373
   13.678  13.056  14.118  14.333  13.829  13.628  14.589  15.663  15.411  17.297  15.024  15.845  15.185
   14.235  12.778  13.849  14.132  14.101  14.826  14.308  14.533  15.738  16.949  15.220  15.864  14.995
   13.524  14.785  13.872  14.874  14.892  14.827  13.513  14.364  14.626  15.435  14.776  14.831  16.227
   12.833  14.321  14.174  12.883  13.733  14.337  14.431  14.565  15.285  14.717  13.054  12.360  15.762
   13.672  14.148  14.927  14.649  14.619  15.733  15.633  13.149  16.249  12.057  11.698  12.045  13.823
   15.326  15.025  16.037  14.269  13.061  13.842  14.654  14.382  11.571  14.453  12.993  14.346  11.005
   14.571  14.827  16.930  14.338  10.993  13.372  10.764  12.705  12.197  13.144  12.748  11.079  12.142
   12.466  11.940  14.350  12.514  11.909  14.107  12.647  12.797  13.525  12.774  10.762  13.205  12.120
   10.808  10.484  11.337  12.782  13.386  14.055  12.851  12.639  13.425  13.055  11.972  12.977  10.659

    0.850  13.346
   15.851  16.376  16.552  16.968  16.313  15.189  15.584  14.693  13.980  13.583  15.214  15.159  15.251
   16.181  16.264  15.955  17.666  14.897  15.087  13.945  13.826  14.101  14.850  14.516  15.971  16.592
   15.695  16.115  15.019  15.111  14.867  13.745  13.352  15.272  14.639  14.392  15.845  15.212  13.864
   15.511  17.270  14.345  14.309  13.988  13.544  14.392  15.655  14.708  15.226  15.546  15.328  14.875
   13.360  13.590  14.716  14.734  13.587  14.375  14.465  15.558  15.914  17.337  14.842  15.644  14.736
   13.829  13.372  14.191  13.869  14.073  14.700  14.555  14.818  15.921  17.175  15.737  15.923  15.493
   13.472  15.023  14.392  14.595  14.285  14.729  13.346  14.537  14.471  15.752  14.764  14.736  16.285
   13.984  14.424  14.436  12.458  13.293  13.772  14.491  14.964  15.016  14.064  12.807  12.486  15.005
   13.690  13.907  14.995  14.975  14.749  14.846  15.833  12.322  16.532  12.589  11.613  12.555  14.578
   15.177  15.547  16.311  13.844  13.139  13.822  14.116  14.354  11.178  14.187  13.068  14.618  10.180
   15.118  15.342  15.865  13.953  11.531  13.713  10.508  12.343  11.856  12.838  13.217  10.853  12.011
   12.547  11.394  14.133  13.082  12.201  13.984  11.981  13.063  13.932  12.728  10.161  13.086  12.877
   10.767  11.554  11.367  12.575  12.862  14.213  13.029  12.176  14.069  13.299  11.156  12.265  10.525

    0.900  13.623
   15.717  17.087  16.302  17.240  16.576  15.317  15.564  14.351  14.193  14.085  14.408  14.706  15.452
   16.199  16.353  16.113  17.794  14.436  14.795  13.927  14.182  13.222  15.303  14.251  16.301  16.858
   15.694  15.812  15.274  14.892  15.299  13.770  13.826  15.485  14.582  15.180  15.812  14.601  14.297
   15.237  17.534  14.467  14.363  14.258  14.159  14.257  15.836  15.232  14.893  15.477  15.014  14.322
   13.673  13.750  15.178  15.153  13.570  14.479  14.325  15.662  15.327  16.969  14.562  15.749  15.026
   14.265  13.137  14.285  14.138  14.420  14.568  14.271  14.509  15.560  17.582  15.781  15.875  16.078
   13.400  15.212  14.248  14.674  14.410  14.932  13.623  14.648  14.412  15.876  14.552  14.785  15.526
   13.838  14.813  14.179  12.787  13.166  13.844  14.333  14.514  14.352  14.243  12.288  11.875  14.727
   13.571  13.835  15.640  14.998  14.127  14.322  15.575  12.498  16.182  12.675  11.755  12.899  14.891
   16.094  15.923  16.203  13.869  13.148  14.021  13.715  14.724  11.328  13.202  13.377  14.685   9.932
   15.012  15.678  15.310  13.982  11.729  13.899  10.184  12.515  11.416  12.215  12.644  10.941  12.458
   11.771  12.005  14.043  13.218  12.286  13.897  11.617  12.721  13.727  12.825  10.605  12.785  12.909
   10.656  12.263  11.398  12.196  12.991  14.246  13.191  12.426  12.897  13.642  11.250  11.842  10.851

    0.950  13.431
   15.564  17.423  16.288  17.107  15.997  15.697  15.331  14.304  14.115  14.320  14.745  15.205  15.817
   16.032  16.100  15.816  17.464  14.482  14.507  14.005  14.477  13.471  16.026  14.236  16.336  16.869
   15.800  15.715  15.738  14.887  15.539  14.020  13.992  14.960  14.882  15.604  15.707  15.383  14.297
   15.535  17.619  14.593  14.181  14.374  14.161  14.214  15.970  15.217  15.508  15.728  15.164  13.990
   14.132  14.289  15.408  15.198  13.523  14.768  14.867  15.444  15.650  17.304  14.179  16.156  14.550
   14.345  13.395  14.461  14.709  13.952  14.284  14.092  14.412  15.732  17.802  16.037  15.300  16.361
   14.063  14.619  14.361  14.398  14.534  15.183  13.431  14.911  15.045  15.783  14.332  14.663  15.708
   13.790  14.979  14.704  12.807  13.470  13.878  13.941  15.003  13.908  14.479  12.870  12.596  14.785
   13.022  14.277  16.168  15.187  14.099  14.063  14.918  12.369  15.852  12.459  11.013  13.582  15.433
   16.620  16.143  15.451  13.667  12.227  13.733  13.520  14.438  11.493  13.618  13.179  14.883  10.478
   15.661  16.003  14.602  13.829  11.119  14.039  10.137  12.856  11.142  12.547  12.956  11.466  11.397
   11.762  12.059  13.122  13.149  12.175  15.257  13.211  12.457  14.093  12.822  11.019  12.698  13.380
   10.894  12.145  11.654  11.551  12.656  14.446  13.459  13.237  12.839  13.104  11.061  11.955  11.146

    1.000  13.576
   15.489  17.128  16.743  17.261  15.957  15.598  15.045  14.567  13.883  14.401  14.286  15.442  15.800
   15.784  16.030  16.034  17.580  14.748  14.595  14.095  14.610  13.476  16.010  14.269  15.904  16.915
   15.713  15.669  15.362  14.390  15.246  14.331  13.854  14.811  14.848  15.482  15.592  15.263  13.730
   15.663  17.624  14.299  14.166  14.044  14.376  14.054  15.842  15.105  16.261  15.718  15.315  13.891
   13.959  14.702  15.339  14.225  13.144  15.159  14.068  15.334  15.786  17.758  14.618  16.145  14.365
   14.033  13.801  14.810  14.511  14.410  14.753  14.062  14.972  16.638  17.843  16.108  15.421  15.714
   14.350  14.471  14.743  14.119  14.033  15.035  13.576  14.200  15.103  15.727  13.899  14.856  16.052
   13.472  15.148  14.959  13.168  13.041  13.093  13.630  14.459  14.264  14.400  13.559  13.074  14.681
   12.684  13.901  16.337  14.179  14.621  13.483  14.181  12.719  14.670  12.508  11.297  12.922  15.745
   16.056  15.265  15.296  14.114  12.023  13.808  13.326  14.077  11.898  13.591  13.319  14.166   9.960
   16.219  15.244  14.192  14.173  11.961  13.958  10.284  12.669  11.366  12.753  13.052  11.703  11.166