! This hub-height wind-speed file was generated by TurbSim (v1.08.01a-bjj, 4-Sep-2014) on 04-Sep-2014 at 11:03:52.
!
! The requested statistics for this data were:
!    Mean Total Wind Speed =    1.114 m/s
!
!
!   Time  HorSpd  WndDir  VerSpd  HorShr  VerShr  LnVShr  GstSpd
!  (sec)   (m/s)   (deg)   (m/s)     (-)     (-)     (-)   (m/s)
   0.000    1.21    0.50   -0.04   0.000   0.134   0.000    0.00
   0.050    1.20    0.47   -0.05   0.000   0.134   0.000    0.00
   0.100    1.21    0.81   -0.04   0.000   0.134   0.000    0.00
   0.150    1.22    1.59   -0.03   0.000   0.134   0.000    0.00
   0.200    1.22    1.11   -0.03   0.000   0.134   0.000    0.00
   0.250    1.21   -0.55   -0.05   0.000   0.134   0.000    0.00
   0.300    1.20   -0.26   -0.04   0.000   0.134   0.000    0.00
   0.350    1.20    0.68   -0.03   0.000   0.134   0.000    0.00
   0.400    1.20    0.68   -0.03   0.000   0.134   0.000    0.00
   0.450    1.21    0.61   -0.02   0.000   0.134   0.000    0.00
   0.500    1.20    0.66   -0.02   0.000   0.134   0.000    0.00
   0.550    1.21   -0.28   -0.02   0.000   0.134   0.000    0.00
   0.600    1.22   -1.32   -0.02   0.000   0.134   0.000    0.00
   0.650    1.24   -0.90   -0.02   0.000   0.134   0.000    0.00
   0.700    1.23   -0.88   -0.01   0.000   0.134   0.000    0.00
   0.750    1.24   -0.82    0.01   0.000   0.134   0.000    0.00
   0.800    1.24   -0.66    0.01   0.000   0.134   0.000    0.00
   0.850    1.23   -0.22    0.01   0.000   0.134   0.000    0.00
   0.900    1.22   -0.23    0.01   0.000   0.134   0.000    0.00
   0.950    1.23   -0.03    0.00   0.000   0.134   0.000    0.00
   1.000    1.22   -0.36    0.00   0.000   0.134   0.000    0.00
   1.050    1.21   -0.46   -0.01   0.000   0.134   0.000    0.00
   1.100    1.21   -1.09   -0.01   0.000   0.134   0.000    0.00
   1.150    1.21   -1.05   -0.01   0.000   0.134   0.000    0.00
   1.200    1.20   -1.50    0.00   0.000   0.134   0.000    0.00
   1.250    1.20   -2.41    0.00   0.000   0.134   0.000    0.00
   1.300    1.23   -2.33    0.00   0.000   0.134   0.000    0.00
   1.350    1.22   -2.25    0.00   0.000   0.134   0.000    0.00
   1.400    1.21   -1.69    0.00   0.000   0.134   0.000    0.00
   1.450    1.22   -1.99   -0.01   0.000   0.134   0.000    0.00
   1.500    1.22   -2.39   -0.01   0.000   0.134   0.000    0.00
   1.550    1.23   -2.96   -0.01   0.000   0.134   0.000    0.00
   1.600    1.24   -3.47    0.00   0.000   0.134   0.000    0.00
   1.650    1.23   -2.95   -0.01   0.000   0.134   0.000    0.00
   1.700    1.22   -2.72    0.00   0.000   0.134   0.000    0.00
   1.750    1.21   -3.79   -0.01   0.000   0.134   0.000    0.00
   1.800    1.21   -4.03    0.00   0.000   0.134   0.000    0.00
   1.850    1.22   -3.82    0.00   0.000   0.134   0.000    0.00
   1.900    1.23   -3.19    0.01   0.000   0.134   0.000    0.00
   1.950    1.24   -3.65    0.01   0.000   0.134   0.000    0.00
   2.000    1.22   -3.40    0.01   0.000   0.134   0.000    0.00
   2.050    1.22   -2.79    0.00   0.000   0.134   0.000    0.00
   2.100    1.22   -2.80    0.01   0.000   0.134   0.000    0.00
   2.150    1.23   -2.59    0.01   0.000   0.134   0.000    0.00
   2.200    1.24   -2.80    0.01   0.000   0.134   0.000    0.00
   2.250    1.23   -2.06    0.00   0.000   0.134   0.000    0.00
   2.300    1.23   -2.28    0.01   0.000   0.134   0.000    0.00
   2.350    1.23   -2.37    0.00   0.000   0.134   0.000    0.00
   2.400    1.22   -2.89    0.00   0.000   0.134   0.000    0.00
   2.450    1.21   -3.32    0.01   0.000   0.134   0.000    0.00
   2.500    1.23   -3.49   -0.01   0.000   0.134   0.000    0.00
   2.550    1.23   -3.94    0.00   0.000   0.134   0.000    0.00
   2.600    1.23   -4.77    0.02   0.000   0.134   0.000    0.00
   2.650    1.22   -5.06    0.02   0.000   0.134   0.000    0.00
   2.700    1.23   -4.78    0.02   0.000   0.134   0.000    0.00
   2.750    1.23   -4.96    0.02   0.000   0.134   0.000    0.00
   2.800    1.22   -3.89    0.01   0.000   0.134   0.000    0.00
   2.850    1.22   -3.53    0.01   0.000   0.134   0.000    0.00
   2.900    1.22   -3.84    0.02   0.000   0.134   0.000    0.00
   2.950    1.23   -3.96    0.02   0.000   0.134   0.000    0.00
   3.000    1.21   -4.19    0.01   0.000   0.134   0.000    0.00
   3.050    1.21   -3.92    0.02   0.000   0.134   0.000    0.00
   3.100    1.21   -3.84    0.02   0.000   0.134   0.000    0.00
   3.150    1.21   -3.70    0.02   0.000   0.134   0.000    0.00
   3.200    1.22   -3.42    0.01   0.000   0.134   0.000    0.00
   3.250    1.21   -3.74    0.01   0.000   0.134   0.000    0.00
   3.300    1.22   -3.19    0.01   0.000   0.134   0.000    0.00
   3.350    1.23   -4.00    0.00   0.000   0.134   0.000    0.00
   3.400    1.22   -4.00   -0.01   0.000   0.134   0.000    0.00
   3.450    1.22   -4.29    0.00   0.000   0.134   0.000    0.00
   3.500    1.21   -3.58    0.00   0.000   0.134   0.000    0.00
   3.550    1.20   -3.28    0.00   0.000   0.134   0.000    0.00
   3.600    1.19   -2.58    0.01   0.000   0.134   0.000    0.00
   3.650    1.18   -1.98    0.01   0.000   0.134   0.000    0.00
   3.700    1.18   -1.50    0.00   0.000   0.134   0.000    0.00
   3.750    1.18   -2.07    0.00   0.000   0.134   0.000    0.00
   3.800    1.18   -1.81    0.00   0.000   0.134   0.000    0.00
   3.850    1.18   -2.52    0.00   0.000   0.134   0.000    0.00
   3.900    1.18   -2.90   -0.01   0.000   0.134   0.000    0.00
   3.950    1.19   -2.78    0.00   0.000   0.134   0.000    0.00
   4.000    1.19   -2.63   -0.01   0.000   0.134   0.000    0.00
   4.050    1.19   -2.03    0.00   0.000   0.134   0.000    0.00
   4.100    1.18   -0.88    0.01   0.000   0.134   0.000    0.00
   4.150    1.17   -1.56    0.01   0.000   0.134   0.000    0.00
   4.200    1.17   -1.94    0.02   0.000   0.134   0.000    0.00
   4.250    1.18   -1.31    0.02   0.000   0.134   0.000    0.00
   4.300    1.16   -0.90    0.03   0.000   0.134   0.000    0.00
   4.350    1.17   -0.82    0.02   0.000   0.134   0.000    0.00
   4.400    1.19   -0.82    0.02   0.000   0.134   0.000    0.00
   4.450    1.21   -1.13    0.01   0.000   0.134   0.000    0.00
   4.500    1.20   -1.91    0.00   0.000   0.134   0.000    0.00
   4.550    1.20   -2.31    0.02   0.000   0.134   0.000    0.00
   4.600    1.19   -1.43    0.01   0.000   0.134   0.000    0.00
   4.650    1.21   -0.62    0.00   0.000   0.134   0.000    0.00
   4.700    1.20   -1.16    0.00   0.000   0.134   0.000    0.00
   4.750    1.21   -0.68   -0.01   0.000   0.134   0.000    0.00
   4.800    1.20   -1.02    0.00   0.000   0.134   0.000    0.00
   4.850    1.20   -1.23    0.00   0.000   0.134   0.000    0.00
   4.900    1.20   -0.18    0.01   0.000   0.134   0.000    0.00
   4.950    1.21    0.05    0.00   0.000   0.134   0.000    0.00
   5.000    1.22    0.29   -0.01   0.000   0.134   0.000    0.00
   5.050    1.23    0.82    0.02   0.000   0.134   0.000    0.00
   5.100    1.22    1.46    0.03   0.000   0.134   0.000    0.00
   5.150    1.22    1.14    0.03   0.000   0.134   0.000    0.00
   5.200    1.22    0.50    0.05   0.000   0.134   0.000    0.00
   5.250    1.21    0.03    0.05   0.000   0.134   0.000    0.00
   5.300    1.18   -0.82    0.07   0.000   0.134   0.000    0.00
   5.350    1.18    0.31    0.07   0.000   0.134   0.000    0.00
   5.400    1.19    0.35    0.06   0.000   0.134   0.000    0.00
   5.450    1.18    0.35    0.06   0.000   0.134   0.000    0.00
   5.500    1.16    0.75    0.06   0.000   0.134   0.000    0.00
   5.550    1.15    0.97    0.06   0.000   0.134   0.000    0.00
   5.600    1.15    1.23    0.07   0.000   0.134   0.000    0.00
   5.650    1.16    1.32    0.06   0.000   0.134   0.000    0.00
   5.700    1.17    1.03    0.06   0.000   0.134   0.000    0.00
   5.750    1.18    1.55    0.07   0.000   0.134   0.000    0.00
   5.800    1.18    1.26    0.07   0.000   0.134   0.000    0.00
   5.850    1.18    1.36    0.07   0.000   0.134   0.000    0.00
   5.900    1.17    2.05    0.07   0.000   0.134   0.000    0.00
   5.950    1.17    1.81    0.05   0.000   0.134   0.000    0.00
   6.000    1.16    1.21    0.05   0.000   0.134   0.000    0.00
   6.050    1.17    1.51    0.05   0.000   0.134   0.000    0.00
   6.100    1.19    1.51    0.04   0.000   0.134   0.000    0.00
   6.150    1.19    1.55    0.04   0.000   0.134   0.000    0.00
   6.200    1.18    0.99    0.03   0.000   0.134   0.000    0.00
   6.250    1.20    1.54    0.02   0.000   0.134   0.000    0.00
   6.300    1.20    1.75    0.03   0.000   0.134   0.000    0.00
   6.350    1.21    1.59    0.03   0.000   0.134   0.000    0.00
   6.400    1.20    1.75    0.02   0.000   0.134   0.000    0.00
   6.450    1.20    2.09    0.01   0.000   0.134   0.000    0.00
   6.500    1.21    1.92    0.03   0.000   0.134   0.000    0.00
   6.550    1.24    2.91    0.03   0.000   0.134   0.000    0.00
   6.600    1.25    3.37    0.04   0.000   0.134   0.000    0.00
   6.650    1.26    2.77    0.04   0.000   0.134   0.000    0.00
   6.700    1.28    2.26    0.02   0.000   0.134   0.000    0.00
   6.750    1.28    1.55    0.01   0.000   0.134   0.000    0.00
   6.800    1.29    1.21    0.01   0.000   0.134   0.000    0.00
   6.850    1.30    1.20    0.03   0.000   0.134   0.000    0.00
   6.900    1.29    1.01    0.03   0.000   0.134   0.000    0.00
   6.950    1.28    1.81    0.03   0.000   0.134   0.000    0.00
   7.000    1.30    2.37    0.02   0.000   0.134   0.000    0.00
   7.050    1.28    2.13    0.04   0.000   0.134   0.000    0.00
   7.100    1.26    3.08    0.05   0.000   0.134   0.000    0.00
   7.150    1.28    2.93    0.04   0.000   0.134   0.000    0.00
   7.200    1.27    2.24    0.04   0.000   0.134   0.000    0.00
   7.250    1.28    2.58    0.02   0.000   0.134   0.000    0.00
   7.300    1.28    3.11    0.03   0.000   0.134   0.000    0.00
   7.350    1.26    2.82    0.03   0.000   0.134   0.000    0.00
   7.400    1.28    2.73    0.02   0.000   0.134   0.000    0.00
   7.450    1.30    2.63    0.02   0.000   0.134   0.000    0.00
   7.500    1.29    1.77    0.01   0.000   0.134   0.000    0.00
   7.550    1.28    2.13    0.01   0.000   0.134   0.000    0.00
   7.600    1.29    1.83    0.01   0.000   0.134   0.000    0.00
   7.650    1.27    1.62    0.01   0.000   0.134   0.000    0.00
   7.700    1.27    2.26    0.01   0.000   0.134   0.000    0.00
   7.750    1.26    1.79    0.01   0.000   0.134   0.000    0.00
   7.800    1.24    1.61    0.02   0.000   0.134   0.000    0.00
   7.850    1.24    0.92    0.03   0.000   0.134   0.000    0.00
   7.900    1.23    0.13    0.03   0.000   0.134   0.000    0.00
   7.950    1.23    0.72    0.04   0.000   0.134   0.000    0.00
   8.000    1.23    0.15    0.04   0.000   0.134   0.000    0.00
   8.050    1.25    0.45    0.04   0.000   0.134   0.000    0.00
   8.100    1.25    0.53    0.03   0.000   0.134   0.000    0.00
   8.150    1.26    0.26    0.03   0.000   0.134   0.000    0.00
   8.200    1.28    0.67    0.02   0.000   0.134   0.000    0.00
   8.250    1.27    0.81    0.01   0.000   0.134   0.000    0.00
   8.300    1.26   -0.78    0.01   0.000   0.134   0.000    0.00
   8.350    1.26   -1.16    0.02   0.000   0.134   0.000    0.00
   8.400    1.26   -1.40    0.02   0.000   0.134   0.000    0.00
   8.450    1.26   -1.48    0.02   0.000   0.134   0.000    0.00
   8.500    1.25   -1.27    0.02   0.000   0.134   0.000    0.00
   8.550    1.25   -1.24    0.03   0.000   0.134   0.000    0.00
   8.600    1.27   -0.89    0.02   0.000   0.134   0.000    0.00
   8.650    1.26   -0.94    0.02   0.000   0.134   0.000    0.00
   8.700    1.25   -1.28    0.03   0.000   0.134   0.000    0.00
   8.750    1.27   -2.05    0.02   0.000   0.134   0.000    0.00
   8.800    1.28   -2.38    0.02   0.000   0.134   0.000    0.00
   8.850    1.28   -1.77    0.02   0.000   0.134   0.000    0.00
   8.900    1.29   -1.82    0.02   0.000   0.134   0.000    0.00
   8.950    1.29   -1.34    0.01   0.000   0.134   0.000    0.00
   9.000    1.29   -0.71   -0.02   0.000   0.134   0.000    0.00
   9.050    1.31   -0.65   -0.02   0.000   0.134   0.000    0.00
   9.100    1.30   -0.79    0.00   0.000   0.134   0.000    0.00
   9.150    1.30   -0.64    0.01   0.000   0.134   0.000    0.00
   9.200    1.28   -0.49    0.02   0.000   0.134   0.000    0.00
   9.250    1.26   -1.64    0.02   0.000   0.134   0.000    0.00
   9.300    1.27   -2.20    0.02   0.000   0.134   0.000    0.00
   9.350    1.27   -1.86    0.02   0.000   0.134   0.000    0.00
   9.400    1.28   -2.04    0.02   0.000   0.134   0.000    0.00
   9.450    1.28   -1.99    0.02   0.000   0.134   0.000    0.00
   9.500    1.30   -1.76    0.01   0.000   0.134   0.000    0.00
   9.550    1.32   -2.36    0.00   0.000   0.134   0.000    0.00
   9.600    1.32   -2.98    0.00   0.000   0.134   0.000    0.00
   9.650    1.31   -2.98   -0.01   0.000   0.134   0.000    0.00
   9.700    1.31   -2.64    0.00   0.000   0.134   0.000    0.00
   9.750    1.31   -2.31    0.00   0.000   0.134   0.000    0.00
   9.800    1.32   -1.66    0.01   0.000   0.134   0.000    0.00
   9.850    1.32   -1.97    0.01   0.000   0.134   0.000    0.00
   9.900    1.33   -1.11    0.01   0.000   0.134   0.000    0.00
   9.950    1.32   -0.91    0.01   0.000   0.134   0.000    0.00
  10.000    1.31   -1.02    0.02   0.000   0.134   0.000    0.00
  10.050    1.32   -0.45    0.01   0.000   0.134   0.000    0.00
  10.100    1.31   -0.50    0.02   0.000   0.134   0.000    0.00
  10.150    1.31   -1.00    0.01   0.000   0.134   0.000    0.00
  10.200    1.32   -0.64    0.03   0.000   0.134   0.000    0.00
  10.250    1.32   -0.28    0.02   0.000   0.134   0.000    0.00
  10.300    1.32   -0.47    0.00   0.000   0.134   0.000    0.00
  10.350    1.32    0.06    0.00   0.000   0.134   0.000    0.00
  10.400    1.32    0.51    0.00   0.000   0.134   0.000    0.00
  10.450    1.32    0.99    0.00   0.000   0.134   0.000    0.00
  10.500    1.31    1.83    0.00   0.000   0.134   0.000    0.00
  10.550    1.31    1.87    0.01   0.000   0.134   0.000    0.00
  10.600    1.33    1.89    0.01   0.000   0.134   0.000    0.00
  10.650    1.31    2.27    0.01   0.000   0.134   0.000    0.00
  10.700    1.30    1.58    0.01   0.000   0.134   0.000    0.00
  10.750    1.29    1.20    0.02   0.000   0.134   0.000    0.00
  10.800    1.28    1.21    0.03   0.000   0.134   0.000    0.00
  10.850    1.29    1.11    0.02   0.000   0.134   0.000    0.00
  10.900    1.29    1.30    0.03   0.000   0.134   0.000    0.00
  10.950    1.30    2.09    0.01   0.000   0.134   0.000    0.00
  11.000    1.28    1.70    0.02   0.000   0.134   0.000    0.00
  11.050    1.27    2.05    0.02   0.000   0.134   0.000    0.00
  11.100    1.26    2.47    0.02   0.000   0.134   0.000    0.00
  11.150    1.24    2.33    0.02   0.000   0.134   0.000    0.00
  11.200    1.25    2.55    0.00   0.000   0.134   0.000    0.00
  11.250    1.26    2.01   -0.02   0.000   0.134   0.000    0.00
  11.300    1.25    1.98   -0.02   0.000   0.134   0.000    0.00
  11.350    1.25    1.29   -0.02   0.000   0.134   0.000    0.00
  11.400    1.25    1.86   -0.02   0.000   0.134   0.000    0.00
  11.450    1.25    1.14   -0.01   0.000   0.134   0.000    0.00
  11.500    1.28    1.63   -0.01   0.000   0.134   0.000    0.00
  11.550    1.27    0.97    0.00   0.000   0.134   0.000    0.00
  11.600    1.25    0.63   -0.01   0.000   0.134   0.000    0.00
  11.650    1.26    1.73   -0.01   0.000   0.134   0.000    0.00
  11.700    1.25    1.73    0.00   0.000   0.134   0.000    0.00
  11.750    1.25    2.60   -0.01   0.000   0.134   0.000    0.00
  11.800    1.25    1.96   -0.01   0.000   0.134   0.000    0.00
  11.850    1.25    1.34    0.00   0.000   0.134   0.000    0.00
  11.900    1.26    1.85   -0.01   0.000   0.134   0.000    0.00
  11.950    1.26    1.86   -0.02   0.000   0.134   0.000    0.00
  12.000    1.25    1.48   -0.03   0.000   0.134   0.000    0.00
  12.050    1.25    1.45   -0.03   0.000   0.134   0.000    0.00
  12.100    1.25    1.08   -0.04   0.000   0.134   0.000    0.00
  12.150    1.27    1.25   -0.03   0.000   0.134   0.000    0.00
  12.200    1.26    0.80   -0.02   0.000   0.134   0.000    0.00
  12.250    1.27    1.31   -0.02   0.000   0.134   0.000    0.00
  12.300    1.25    1.68   -0.02   0.000   0.134   0.000    0.00
  12.350    1.26    0.23   -0.01   0.000   0.134   0.000    0.00
  12.400    1.27    0.62   -0.02   0.000   0.134   0.000    0.00
  12.450    1.28    1.38   -0.02   0.000   0.134   0.000    0.00
  12.500    1.27    0.95    0.00   0.000   0.134   0.000    0.00
  12.550    1.26    0.87    0.00   0.000   0.134   0.000    0.00
  12.600    1.27    1.93   -0.01   0.000   0.134   0.000    0.00
  12.650    1.28    2.26   -0.01   0.000   0.134   0.000    0.00
  12.700    1.28    2.78   -0.02   0.000   0.134   0.000    0.00
  12.750    1.26    3.16   -0.02   0.000   0.134   0.000    0.00
  12.800    1.26    3.48   -0.02   0.000   0.134   0.000    0.00
  12.850    1.26    3.29   -0.03   0.000   0.134   0.000    0.00
  12.900    1.26    3.97   -0.03   0.000   0.134   0.000    0.00
  12.950    1.25    3.44   -0.02   0.000   0.134   0.000    0.00
  13.000    1.25    3.65   -0.02   0.000   0.134   0.000    0.00
  13.050    1.25    3.95   -0.02   0.000   0.134   0.000    0.00
  13.100    1.24    3.24   -0.02   0.000   0.134   0.000    0.00
  13.150    1.23    3.46   -0.03   0.000   0.134   0.000    0.00
  13.200    1.24    4.01   -0.02   0.000   0.134   0.000    0.00
  13.250    1.25    3.53   -0.02   0.000   0.134   0.000    0.00
  13.300    1.24    3.14   -0.02   0.000   0.134   0.000    0.00
  13.350    1.24    3.18   -0.02   0.000   0.134   0.000    0.00
  13.400    1.25    3.43   -0.04   0.000   0.134   0.000    0.00
  13.450    1.24    2.65   -0.04   0.000   0.134   0.000    0.00
  13.500    1.24    3.47   -0.03   0.000   0.134   0.000    0.00
  13.550    1.24    3.26   -0.02   0.000   0.134   0.000    0.00
  13.600    1.25    2.15   -0.02   0.000   0.134   0.000    0.00
  13.650    1.25    1.37   -0.03   0.000   0.134   0.000    0.00
  13.700    1.25    0.89   -0.04   0.000   0.134   0.000    0.00
  13.750    1.23    0.84   -0.02   0.000   0.134   0.000    0.00
  13.800    1.25   -0.03   -0.02   0.000   0.134   0.000    0.00
  13.850    1.24   -0.38   -0.02   0.000   0.134   0.000    0.00
  13.900    1.25   -0.20   -0.02   0.000   0.134   0.000    0.00
  13.950    1.24   -0.72   -0.03   0.000   0.134   0.000    0.00
  14.000    1.24   -0.12   -0.01   0.000   0.134   0.000    0.00
  14.050    1.26    0.12   -0.03   0.000   0.134   0.000    0.00
  14.100    1.25   -0.18   -0.02   0.000   0.134   0.000    0.00
  14.150    1.26   -0.66   -0.01   0.000   0.134   0.000    0.00
  14.200    1.28   -1.12   -0.01   0.000   0.134   0.000    0.00
  14.250    1.27   -0.52   -0.02   0.000   0.134   0.000    0.00
  14.300    1.26   -0.57   -0.02   0.000   0.134   0.000    0.00
  14.350    1.26   -0.23   -0.01   0.000   0.134   0.000    0.00
  14.400    1.26   -0.49   -0.02   0.000   0.134   0.000    0.00
  14.450    1.27    0.02   -0.02   0.000   0.134   0.000    0.00
  14.500    1.27   -0.75   -0.01   0.000   0.134   0.000    0.00
  14.550    1.28   -0.56   -0.02   0.000   0.134   0.000    0.00
  14.600    1.27   -0.58   -0.02   0.000   0.134   0.000    0.00
  14.650    1.27    0.27   -0.03   0.000   0.134   0.000    0.00
  14.700    1.28   -0.15   -0.03   0.000   0.134   0.000    0.00
  14.750    1.28    0.32   -0.04   0.000   0.134   0.000    0.00
  14.800    1.29    0.73   -0.03   0.000   0.134   0.000    0.00
  14.850    1.27    0.62   -0.03   0.000   0.134   0.000    0.00
  14.900    1.27   -0.16   -0.03   0.000   0.134   0.000    0.00
  14.950    1.27    0.30   -0.03   0.000   0.134   0.000    0.00
  15.000    1.26    0.00   -0.03   0.000   0.134   0.000    0.00
  15.050    1.27   -0.54   -0.05   0.000   0.134   0.000    0.00
  15.100    1.26   -0.77   -0.06   0.000   0.134   0.000    0.00
  15.150    1.26    0.00   -0.06   0.000   0.134   0.000    0.00
  15.200    1.24    0.06   -0.06   0.000   0.134   0.000    0.00
  15.250    1.24   -0.55   -0.04   0.000   0.134   0.000    0.00
  15.300    1.25   -0.89   -0.05   0.000   0.134   0.000    0.00
  15.350    1.25   -0.34   -0.06   0.000   0.134   0.000    0.00
  15.400    1.25   -0.83   -0.04   0.000   0.134   0.000    0.00
  15.450    1.24   -0.63   -0.05   0.000   0.134   0.000    0.00
  15.500    1.23   -0.66   -0.05   0.000   0.134   0.000    0.00
  15.550    1.23    0.28   -0.04   0.000   0.134   0.000    0.00
  15.600    1.23    0.52   -0.04   0.000   0.134   0.000    0.00
  15.650    1.25    0.32   -0.05   0.000   0.134   0.000    0.00
  15.700    1.25   -0.81   -0.05   0.000   0.134   0.000    0.00
  15.750    1.24   -1.30   -0.05   0.000   0.134   0.000    0.00
  15.800    1.25   -1.26   -0.06   0.000   0.134   0.000    0.00
  15.850    1.24   -0.35   -0.06   0.000   0.134   0.000    0.00
  15.900    1.21    0.01   -0.05   0.000   0.134   0.000    0.00
  15.950    1.21   -0.64   -0.05   0.000   0.134   0.000    0.00
  16.000    1.19    0.51   -0.05   0.000   0.134   0.000    0.00
  16.050    1.20   -0.07   -0.05   0.000   0.134   0.000    0.00
  16.100    1.20    0.19   -0.06   0.000   0.134   0.000    0.00
  16.150    1.20   -0.17   -0.05   0.000   0.134   0.000    0.00
  16.200    1.22    0.64   -0.04   0.000   0.134   0.000    0.00
  16.250    1.20   -0.33   -0.03   0.000   0.134   0.000    0.00
  16.300    1.19   -1.20   -0.02   0.000   0.134   0.000    0.00
  16.350    1.19   -0.34   -0.03   0.000   0.134   0.000    0.00
  16.400    1.20   -0.81   -0.04   0.000   0.134   0.000    0.00
  16.450    1.20   -1.30   -0.06   0.000   0.134   0.000    0.00
  16.500    1.19   -1.15   -0.06   0.000   0.134   0.000    0.00
  16.550    1.19   -1.61   -0.05   0.000   0.134   0.000    0.00
  16.600    1.18   -1.54   -0.04   0.000   0.134   0.000    0.00
  16.650    1.19   -1.41   -0.05   0.000   0.134   0.000    0.00
  16.700    1.20   -0.19   -0.06   0.000   0.134   0.000    0.00
  16.750    1.22   -0.72   -0.06   0.000   0.134   0.000    0.00
  16.800    1.21   -0.92   -0.05   0.000   0.134   0.000    0.00
  16.850    1.21   -0.57   -0.05   0.000   0.134   0.000    0.00
  16.900    1.19   -0.36   -0.05   0.000   0.134   0.000    0.00
  16.950    1.18   -0.35   -0.03   0.000   0.134   0.000    0.00
  17.000    1.20   -0.36   -0.04   0.000   0.134   0.000    0.00
  17.050    1.20   -0.41   -0.04   0.000   0.134   0.000    0.00
  17.100    1.19   -1.02   -0.03   0.000   0.134   0.000    0.00
  17.150    1.18   -1.11   -0.04   0.000   0.134   0.000    0.00
  17.200    1.19   -0.73   -0.02   0.000   0.134   0.000    0.00
  17.250    1.19   -1.44   -0.03   0.000   0.134   0.000    0.00
  17.300    1.19   -1.16   -0.04   0.000   0.134   0.000    0.00
  17.350    1.19   -0.48   -0.02   0.000   0.134   0.000    0.00
  17.400    1.18   -1.68   -0.02   0.000   0.134   0.000    0.00
  17.450    1.19   -1.17   -0.02   0.000   0.134   0.000    0.00
  17.500    1.18   -1.77   -0.02   0.000   0.134   0.000    0.00
  17.550    1.18   -1.15   -0.01   0.000   0.134   0.000    0.00
  17.600    1.17   -1.31   -0.01   0.000   0.134   0.000    0.00
  17.650    1.15   -1.92    0.00   0.000   0.134   0.000    0.00
  17.700    1.14   -2.02   -0.01   0.000   0.134   0.000    0.00
  17.750    1.15   -2.65   -0.02   0.000   0.134   0.000    0.00
  17.800    1.15   -2.59   -0.02   0.000   0.134   0.000    0.00
  17.850    1.15   -3.16   -0.02   0.000   0.134   0.000    0.00
  17.900    1.15   -2.63   -0.01   0.000   0.134   0.000    0.00
  17.950    1.16   -1.61   -0.02   0.000   0.134   0.000    0.00
  18.000    1.16   -2.14   -0.02   0.000   0.134   0.000    0.00
  18.050    1.17   -3.12   -0.03   0.000   0.134   0.000    0.00
  18.100    1.16   -2.98   -0.02   0.000   0.134   0.000    0.00
  18.150    1.16   -2.66   -0.02   0.000   0.134   0.000    0.00
  18.200    1.16   -2.66   -0.02   0.000   0.134   0.000    0.00
  18.250    1.17   -2.19   -0.02   0.000   0.134   0.000    0.00
  18.300    1.16   -2.43   -0.02   0.000   0.134   0.000    0.00
  18.350    1.16   -2.66   -0.01   0.000   0.134   0.000    0.00
  18.400    1.16   -2.60   -0.01   0.000   0.134   0.000    0.00
  18.450    1.15   -2.10   -0.01   0.000   0.134   0.000    0.00
  18.500    1.15   -1.99    0.00   0.000   0.134   0.000    0.00
  18.550    1.14   -1.65    0.00   0.000   0.134   0.000    0.00
  18.600    1.14   -2.25   -0.01   0.000   0.134   0.000    0.00
  18.650    1.14   -1.56    0.01   0.000   0.134   0.000    0.00
  18.700    1.14   -2.00    0.00   0.000   0.134   0.000    0.00
  18.750    1.14   -3.30   -0.01   0.000   0.134   0.000    0.00
  18.800    1.14   -3.12    0.00   0.000   0.134   0.000    0.00
  18.850    1.13   -3.96    0.01   0.000   0.134   0.000    0.00
  18.900    1.14   -4.59    0.01   0.000   0.134   0.000    0.00
  18.950    1.14   -4.48    0.00   0.000   0.134   0.000    0.00
  19.000    1.16   -3.88    0.01   0.000   0.134   0.000    0.00
  19.050    1.17   -4.50    0.01   0.000   0.134   0.000    0.00
  19.100    1.15   -5.01    0.01   0.000   0.134   0.000    0.00
  19.150    1.17   -5.00    0.02   0.000   0.134   0.000    0.00
  19.200    1.16   -4.21    0.03   0.000   0.134   0.000    0.00
  19.250    1.16   -4.49    0.03   0.000   0.134   0.000    0.00
  19.300    1.16   -4.26    0.02   0.000   0.134   0.000    0.00
  19.350    1.18   -4.62    0.02   0.000   0.134   0.000    0.00
  19.400    1.19   -5.05    0.01   0.000   0.134   0.000    0.00
  19.450    1.19   -4.83    0.01   0.000   0.134   0.000    0.00
  19.500    1.19   -4.32    0.01   0.000   0.134   0.000    0.00
  19.550    1.17   -3.59    0.02   0.000   0.134   0.000    0.00
  19.600    1.17   -3.70    0.02   0.000   0.134   0.000    0.00
  19.650    1.17   -4.06    0.03   0.000   0.134   0.000    0.00
  19.700    1.19   -3.95    0.01   0.000   0.134   0.000    0.00
  19.750    1.18   -4.07    0.01   0.000   0.134   0.000    0.00
  19.800    1.17   -3.86    0.01   0.000   0.134   0.000    0.00
  19.850    1.16   -3.67    0.01   0.000   0.134   0.000    0.00
  19.900    1.15   -4.65    0.02   0.000   0.134   0.000    0.00
  19.950    1.15   -3.89    0.03   0.000   0.134   0.000    0.00
  20.000    1.15   -3.26    0.02   0.000   0.134   0.000    0.00
  20.050    1.16   -3.30    0.03   0.000   0.134   0.000    0.00
  20.100    1.13   -3.59    0.03   0.000   0.134   0.000    0.00
  20.150    1.15   -4.02    0.01   0.000   0.134   0.000    0.00
  20.200    1.16   -3.31    0.01   0.000   0.134   0.000    0.00
  20.250    1.15   -4.27    0.03   0.000   0.134   0.000    0.00
  20.300    1.15   -4.49    0.04   0.000   0.134   0.000    0.00
  20.350    1.13   -4.15    0.04   0.000   0.134   0.000    0.00
  20.400    1.11   -3.25    0.03   0.000   0.134   0.000    0.00
  20.450    1.10   -3.25    0.03   0.000   0.134   0.000    0.00
  20.500    1.12   -3.68    0.03   0.000   0.134   0.000    0.00
  20.550    1.12   -4.37    0.03   0.000   0.134   0.000    0.00
  20.600    1.12   -3.80    0.02   0.000   0.134   0.000    0.00
  20.650    1.12   -2.90    0.01   0.000   0.134   0.000    0.00
  20.700    1.12   -3.06    0.01   0.000   0.134   0.000    0.00
  20.750    1.14   -3.64    0.02   0.000   0.134   0.000    0.00
  20.800    1.14   -3.87    0.01   0.000   0.134   0.000    0.00
  20.850    1.14   -3.66    0.00   0.000   0.134   0.000    0.00
  20.900    1.13   -4.29    0.00   0.000   0.134   0.000    0.00
  20.950    1.14   -4.49    0.01   0.000   0.134   0.000    0.00
  21.000    1.13   -4.01    0.00   0.000   0.134   0.000    0.00
  21.050    1.13   -4.52    0.00   0.000   0.134   0.000    0.00
  21.100    1.12   -4.86   -0.01   0.000   0.134   0.000    0.00
  21.150    1.11   -3.83    0.01   0.000   0.134   0.000    0.00
  21.200    1.10   -3.03    0.01   0.000   0.134   0.000    0.00
  21.250    1.09   -3.47   -0.01   0.000   0.134   0.000    0.00
  21.300    1.09   -4.20   -0.01   0.000   0.134   0.000    0.00
  21.350    1.10   -3.58    0.01   0.000   0.134   0.000    0.00
  21.400    1.08   -3.41    0.00   0.000   0.134   0.000    0.00
  21.450    1.08   -3.10    0.00   0.000   0.134   0.000    0.00
  21.500    1.08   -2.27    0.01   0.000   0.134   0.000    0.00
  21.550    1.09   -1.58    0.00   0.000   0.134   0.000    0.00
  21.600    1.12   -1.57   -0.01   0.000   0.134   0.000    0.00
  21.650    1.13   -2.96   -0.02   0.000   0.134   0.000    0.00
  21.700    1.12   -2.40   -0.02   0.000   0.134   0.000    0.00
  21.750    1.13   -2.62   -0.02   0.000   0.134   0.000    0.00
  21.800    1.12   -2.39   -0.03   0.000   0.134   0.000    0.00
  21.850    1.14   -1.81   -0.03   0.000   0.134   0.000    0.00
  21.900    1.13   -1.42   -0.02   0.000   0.134   0.000    0.00
  21.950    1.15   -1.63   -0.03   0.000   0.134   0.000    0.00
  22.000    1.16   -1.55   -0.02   0.000   0.134   0.000    0.00
  22.050    1.16   -2.25   -0.02   0.000   0.134   0.000    0.00
  22.100    1.16   -2.14   -0.01   0.000   0.134   0.000    0.00
  22.150    1.16   -2.45   -0.01   0.000   0.134   0.000    0.00
  22.200    1.16   -2.24   -0.01   0.000   0.134   0.000    0.00
  22.250    1.17   -2.31   -0.01   0.000   0.134   0.000    0.00
  22.300    1.16   -2.36   -0.01   0.000   0.134   0.000    0.00
  22.350    1.17   -2.48   -0.01   0.000   0.134   0.000    0.00
  22.400    1.17   -1.89   -0.01   0.000   0.134   0.000    0.00