
This hub-height turbulence-parameter file was generated by TurbSim (v2.00.06a-bjj, 6-Jun-2016) on 07-Jun-2016 at 10:43:30.

   Time      U       Uh       Ut        V        W        u'       v'       w'      u'w'     u'v'     v'w'     TKE      CTKE
   0.00    1.211    1.211    1.211   -0.009   -0.042    0.097   -0.009   -0.042   -0.004   -0.001    0.000    0.006    0.002
   0.05    1.204    1.204    1.205   -0.008   -0.046    0.090   -0.008   -0.046   -0.004   -0.001    0.000    0.005    0.002
   0.10    1.214    1.214    1.215   -0.015   -0.039    0.100   -0.015   -0.039   -0.004   -0.002    0.001    0.006    0.002
   0.15    1.216    1.217    1.217   -0.031   -0.031    0.102   -0.031   -0.031   -0.003   -0.003    0.001    0.006    0.002
   0.20    1.219    1.219    1.220   -0.022   -0.031    0.105   -0.022   -0.031   -0.003   -0.002    0.001    0.006    0.002
   0.25    1.215    1.215    1.215    0.012   -0.045    0.101    0.012   -0.045   -0.005    0.001   -0.001    0.006    0.002
   0.30    1.204    1.204    1.204    0.006   -0.038    0.090    0.006   -0.038   -0.003    0.001   -0.000    0.005    0.002
   0.35    1.198    1.198    1.198   -0.013   -0.032    0.084   -0.013   -0.032   -0.003   -0.001    0.000    0.004    0.001
   0.40    1.197    1.197    1.198   -0.013   -0.028    0.083   -0.013   -0.028   -0.002   -0.001    0.000    0.004    0.001
   0.45    1.206    1.206    1.206   -0.011   -0.020    0.092   -0.011   -0.020   -0.002   -0.001    0.000    0.005    0.001
   0.50    1.203    1.203    1.203   -0.012   -0.020    0.089   -0.012   -0.020   -0.002   -0.001    0.000    0.004    0.001
   0.55    1.210    1.210    1.210    0.007   -0.021    0.096    0.007   -0.021   -0.002    0.001   -0.000    0.005    0.001
   0.60    1.221    1.222    1.222    0.028   -0.024    0.107    0.028   -0.024   -0.003    0.003   -0.001    0.006    0.002
   0.65    1.238    1.239    1.239    0.020   -0.022    0.124    0.020   -0.022   -0.003    0.002   -0.000    0.008    0.002
   0.70    1.230    1.230    1.230    0.019   -0.005    0.116    0.019   -0.005   -0.001    0.002   -0.000    0.007    0.001
   0.75    1.236    1.236    1.236    0.018    0.006    0.122    0.018    0.006    0.001    0.002    0.000    0.008    0.001
   0.80    1.241    1.241    1.241    0.015    0.005    0.127    0.015    0.005    0.001    0.002    0.000    0.008    0.001
   0.85    1.227    1.227    1.227    0.005    0.006    0.113    0.005    0.006    0.001    0.001    0.000    0.006    0.000
   0.90    1.224    1.224    1.224    0.006    0.009    0.110    0.006    0.009    0.001    0.001    0.000    0.006    0.001
   0.95    1.226    1.226    1.226    0.001    0.005    0.112    0.001    0.005    0.001    0.000    0.000    0.006    0.000
   1.00    1.224    1.224    1.224    0.008   -0.004    0.110    0.008   -0.004   -0.000    0.001   -0.000    0.006    0.001
   1.05    1.214    1.214    1.214    0.010   -0.009    0.100    0.010   -0.009   -0.001    0.001   -0.000    0.005    0.001
   1.10    1.208    1.208    1.208    0.023   -0.008    0.094    0.023   -0.008   -0.001    0.002   -0.000    0.005    0.001
   1.15    1.208    1.208    1.209    0.022   -0.011    0.094    0.022   -0.011   -0.001    0.002   -0.000    0.005    0.001
   1.20    1.200    1.201    1.201    0.031    0.000    0.086    0.031    0.000    0.000    0.003    0.000    0.004    0.001
   1.25    1.200    1.201    1.201    0.049   -0.002    0.086    0.049   -0.002   -0.000    0.004   -0.000    0.005    0.002
   1.30    1.231    1.232    1.232    0.049   -0.001    0.117    0.049   -0.001   -0.000    0.006   -0.000    0.008    0.003
   1.35    1.222    1.223    1.223    0.047   -0.002    0.108    0.047   -0.002   -0.000    0.005   -0.000    0.007    0.003
   1.40    1.215    1.215    1.215    0.035   -0.004    0.101    0.035   -0.004   -0.000    0.004   -0.000    0.006    0.002
   1.45    1.215    1.216    1.216    0.042   -0.007    0.101    0.042   -0.007   -0.001    0.004   -0.000    0.006    0.002
   1.50    1.223    1.224    1.224    0.050   -0.007    0.109    0.050   -0.007   -0.001    0.005   -0.000    0.007    0.003
   1.55    1.227    1.228    1.228    0.062   -0.013    0.113    0.062   -0.013   -0.001    0.007   -0.001    0.008    0.004
   1.60    1.238    1.240    1.240    0.073   -0.004    0.124    0.073   -0.004   -0.001    0.009   -0.000    0.010    0.005
   1.65    1.230    1.232    1.232    0.062   -0.012    0.116    0.062   -0.012   -0.001    0.007   -0.001    0.009    0.004
   1.70    1.222    1.224    1.224    0.057   -0.003    0.108    0.057   -0.003   -0.000    0.006   -0.000    0.008    0.003
   1.75    1.209    1.211    1.212    0.078   -0.014    0.095    0.078   -0.014   -0.001    0.007   -0.001    0.008    0.004
   1.80    1.211    1.214    1.214    0.083   -0.002    0.097    0.083   -0.002   -0.000    0.008   -0.000    0.008    0.004
   1.85    1.216    1.219    1.219    0.079    0.004    0.102    0.079    0.004    0.000    0.008    0.000    0.008    0.004
   1.90    1.231    1.233    1.233    0.067    0.008    0.117    0.067    0.008    0.001    0.008    0.001    0.009    0.004
   1.95    1.237    1.239    1.239    0.077    0.008    0.123    0.077    0.008    0.001    0.009    0.001    0.011    0.005
   2.00    1.223    1.225    1.225    0.071    0.007    0.109    0.071    0.007    0.001    0.008    0.001    0.008    0.004
   2.05    1.217    1.218    1.218    0.058   -0.004    0.103    0.058   -0.004   -0.000    0.006   -0.000    0.007    0.003
   2.10    1.219    1.220    1.221    0.059    0.009    0.105    0.059    0.009    0.001    0.006    0.001    0.007    0.003
   2.15    1.226    1.227    1.227    0.055    0.009    0.112    0.055    0.009    0.001    0.006    0.001    0.008    0.003
   2.20    1.235    1.237    1.237    0.060    0.015    0.121    0.060    0.015    0.002    0.007    0.001    0.009    0.004
   2.25    1.234    1.235    1.235    0.044    0.004    0.120    0.044    0.004    0.001    0.005    0.000    0.008    0.003
   2.30    1.225    1.226    1.226    0.048    0.012    0.111    0.048    0.012    0.001    0.005    0.001    0.007    0.003
   2.35    1.231    1.232    1.232    0.050   -0.001    0.117    0.050   -0.001   -0.000    0.006   -0.000    0.008    0.003
   2.40    1.222    1.223    1.223    0.061    0.002    0.108    0.061    0.002    0.000    0.007    0.000    0.008    0.003
   2.45    1.212    1.214    1.214    0.069    0.008    0.098    0.069    0.008    0.001    0.007    0.001    0.007    0.003
   2.50    1.228    1.230    1.230    0.074   -0.005    0.114    0.074   -0.005   -0.001    0.008   -0.000    0.009    0.004
   2.55    1.227    1.230    1.230    0.083   -0.003    0.113    0.083   -0.003   -0.000    0.009   -0.000    0.010    0.005
   2.60    1.225    1.229    1.229    0.100    0.021    0.111    0.100    0.021    0.002    0.011    0.002    0.011    0.006
   2.65    1.220    1.224    1.224    0.105    0.017    0.106    0.105    0.017    0.002    0.011    0.002    0.011    0.006
   2.70    1.230    1.234    1.234    0.100    0.021    0.116    0.100    0.021    0.002    0.012    0.002    0.012    0.006
   2.75    1.225    1.230    1.230    0.104    0.022    0.111    0.104    0.022    0.002    0.012    0.002    0.012    0.006
   2.80    1.214    1.216    1.216    0.081    0.014    0.100    0.081    0.014    0.001    0.008    0.001    0.008    0.004
   2.85    1.217    1.219    1.219    0.074    0.009    0.103    0.074    0.009    0.001    0.008    0.001    0.008    0.004
   2.90    1.215    1.218    1.218    0.080    0.021    0.101    0.080    0.021    0.002    0.008    0.002    0.009    0.004
   2.95    1.224    1.227    1.227    0.083    0.015    0.110    0.083    0.015    0.002    0.009    0.001    0.010    0.005
   3.00    1.212    1.215    1.215    0.087    0.010    0.098    0.087    0.010    0.001    0.009    0.001    0.009    0.004
   3.05    1.212    1.215    1.215    0.081    0.015    0.098    0.081    0.015    0.001    0.008    0.001    0.008    0.004
   3.10    1.210    1.212    1.212    0.080    0.019    0.096    0.080    0.019    0.002    0.008    0.001    0.008    0.004
   3.15    1.209    1.212    1.212    0.077    0.018    0.095    0.077    0.018    0.002    0.007    0.001    0.008    0.004
   3.20    1.216    1.218    1.218    0.071    0.011    0.102    0.071    0.011    0.001    0.007    0.001    0.008    0.004
   3.25    1.213    1.215    1.215    0.078    0.006    0.099    0.078    0.006    0.001    0.008    0.000    0.008    0.004
   3.30    1.221    1.223    1.223    0.067    0.007    0.107    0.067    0.007    0.001    0.007    0.000    0.008    0.004
   3.35    1.224    1.227    1.227    0.084   -0.003    0.110    0.084   -0.003   -0.000    0.009   -0.000    0.010    0.005
   3.40    1.219    1.222    1.222    0.084   -0.005    0.105    0.084   -0.005   -0.001    0.009   -0.000    0.009    0.004
   3.45    1.214    1.218    1.218    0.089   -0.004    0.100    0.089   -0.004   -0.000    0.009   -0.000    0.009    0.004
   3.50    1.210    1.212    1.212    0.074   -0.004    0.096    0.074   -0.004   -0.000    0.007   -0.000    0.007    0.004
   3.55    1.195    1.197    1.197    0.067    0.004    0.081    0.067    0.004    0.000    0.005    0.000    0.006    0.003
   3.60    1.192    1.193    1.193    0.053    0.009    0.078    0.053    0.009    0.001    0.004    0.000    0.004    0.002
   3.65    1.184    1.184    1.184    0.041    0.007    0.070    0.041    0.007    0.000    0.003    0.000    0.003    0.001
   3.70    1.184    1.185    1.185    0.031    0.005    0.070    0.031    0.005    0.000    0.002    0.000    0.003    0.001
   3.75    1.182    1.183    1.183    0.043   -0.001    0.068    0.043   -0.001   -0.000    0.003   -0.000    0.003    0.001
   3.80    1.182    1.182    1.182    0.037   -0.001    0.068    0.037   -0.001   -0.000    0.003   -0.000    0.003    0.001
   3.85    1.182    1.183    1.183    0.052   -0.000    0.068    0.052   -0.000   -0.000    0.004   -0.000    0.004    0.002
   3.90    1.183    1.185    1.185    0.059   -0.005    0.069    0.059   -0.005   -0.000    0.004   -0.000    0.004    0.002
   3.95    1.195    1.197    1.197    0.057    0.000    0.081    0.057    0.000    0.000    0.005    0.000    0.005    0.002
   4.00    1.192    1.193    1.193    0.054   -0.008    0.078    0.054   -0.008   -0.001    0.004   -0.000    0.005    0.002
   4.05    1.190    1.191    1.191    0.042    0.002    0.076    0.042    0.002    0.000    0.003    0.000    0.004    0.002
   4.10    1.179    1.179    1.179    0.019    0.014    0.065    0.019    0.014    0.001    0.001    0.000    0.002    0.001
   4.15    1.174    1.174    1.174    0.032    0.010    0.060    0.032    0.010    0.001    0.002    0.000    0.002    0.001
   4.20    1.176    1.177    1.177    0.040    0.019    0.062    0.040    0.019    0.001    0.002    0.001    0.003    0.001
   4.25    1.178    1.179    1.179    0.027    0.022    0.064    0.027    0.022    0.001    0.002    0.001    0.003    0.001
   4.30    1.167    1.167    1.167    0.019    0.029    0.053    0.019    0.029    0.002    0.001    0.001    0.002    0.001
   4.35    1.171    1.171    1.172    0.018    0.023    0.057    0.018    0.023    0.001    0.001    0.000    0.002    0.001
   4.40    1.196    1.196    1.197    0.018    0.019    0.082    0.018    0.019    0.002    0.001    0.000    0.004    0.001
   4.45    1.207    1.207    1.207    0.024    0.010    0.093    0.024    0.010    0.001    0.002    0.000    0.005    0.001
   4.50    1.200    1.200    1.200    0.040   -0.003    0.086    0.040   -0.003   -0.000    0.003   -0.000    0.004    0.002
   4.55    1.202    1.203    1.203    0.048    0.019    0.088    0.048    0.019    0.002    0.004    0.001    0.005    0.002
   4.60    1.192    1.193    1.193    0.030    0.009    0.078    0.030    0.009    0.001    0.002    0.000    0.004    0.001
   4.65    1.210    1.210    1.210    0.014    0.001    0.096    0.014    0.001    0.000    0.001    0.000    0.005    0.001
   4.70    1.203    1.203    1.203    0.025    0.005    0.089    0.025    0.005    0.000    0.002    0.000    0.004    0.001
   4.75    1.209    1.209    1.209    0.015   -0.004    0.095    0.015   -0.004   -0.000    0.001   -0.000    0.005    0.001
   4.80    1.204    1.205    1.205    0.022    0.001    0.090    0.022    0.001    0.000    0.002    0.000    0.004    0.001
   4.85    1.198    1.198    1.198    0.026    0.004    0.084    0.026    0.004    0.000    0.002    0.000    0.004    0.001
   4.90    1.200    1.200    1.200    0.005    0.009    0.086    0.005    0.009    0.001    0.000    0.000    0.004    0.000
   4.95    1.208    1.208    1.208    0.000    0.003    0.094    0.000    0.003    0.000    0.000    0.000    0.004    0.000
   5.00    1.220    1.220    1.220   -0.005   -0.004    0.106   -0.005   -0.004   -0.000   -0.001    0.000    0.006    0.000
   5.05    1.229    1.229    1.229   -0.016    0.019    0.115   -0.016    0.019    0.002   -0.002   -0.000    0.007    0.001
   5.10    1.223    1.224    1.224   -0.029    0.034    0.109   -0.029    0.034    0.004   -0.003   -0.001    0.007    0.002
   5.15    1.218    1.218    1.218   -0.022    0.032    0.104   -0.022    0.032    0.003   -0.002   -0.001    0.006    0.002
   5.20    1.221    1.221    1.222   -0.009    0.045    0.107   -0.009    0.045    0.005   -0.001   -0.000    0.007    0.002
   5.25    1.210    1.210    1.211    0.000    0.052    0.096    0.000    0.052    0.005    0.000    0.000    0.006    0.003
   5.30    1.185    1.185    1.187    0.017    0.065    0.071    0.017    0.065    0.005    0.001    0.001    0.005    0.002
   5.35    1.178    1.178    1.180   -0.005    0.070    0.064   -0.005    0.070    0.004   -0.000   -0.000    0.004    0.002
   5.40    1.187    1.187    1.189   -0.006    0.062    0.073   -0.006    0.062    0.005   -0.000   -0.000    0.005    0.002
   5.45    1.184    1.184    1.185   -0.006    0.056    0.070   -0.006    0.056    0.004   -0.000   -0.000    0.004    0.002
   5.50    1.164    1.164    1.166   -0.014    0.063    0.050   -0.014    0.063    0.003   -0.001   -0.001    0.003    0.002
   5.55    1.151    1.151    1.153   -0.018    0.063    0.037   -0.018    0.063    0.002   -0.001   -0.001    0.003    0.001
   5.60    1.156    1.156    1.158   -0.023    0.070    0.042   -0.023    0.070    0.003   -0.001   -0.002    0.004    0.002
   5.65    1.165    1.166    1.167   -0.025    0.063    0.051   -0.025    0.063    0.003   -0.001   -0.002    0.004    0.002
   5.70    1.171    1.171    1.173   -0.020    0.062    0.057   -0.020    0.062    0.004   -0.001   -0.001    0.004    0.002
   5.75    1.180    1.180    1.182   -0.030    0.072    0.066   -0.030    0.072    0.005   -0.002   -0.002    0.005    0.003
   5.80    1.179    1.179    1.181   -0.024    0.065    0.065   -0.024    0.065    0.004   -0.002   -0.002    0.004    0.002
   5.85    1.183    1.184    1.186   -0.026    0.073    0.069   -0.026    0.073    0.005   -0.002   -0.002    0.005    0.003
   5.90    1.176    1.177    1.179   -0.040    0.068    0.062   -0.040    0.068    0.004   -0.002   -0.003    0.005    0.003
   5.95    1.169    1.169    1.171   -0.035    0.054    0.055   -0.035    0.054    0.003   -0.002   -0.002    0.004    0.002
   6.00    1.163    1.164    1.165   -0.023    0.046    0.050   -0.023    0.046    0.002   -0.001   -0.001    0.003    0.001
   6.05    1.176    1.177    1.178   -0.029    0.046    0.063   -0.029    0.046    0.003   -0.002   -0.001    0.003    0.002
   6.10    1.191    1.192    1.192   -0.030    0.036    0.077   -0.030    0.036    0.003   -0.002   -0.001    0.004    0.002
   6.15    1.190    1.191    1.191   -0.031    0.036    0.076   -0.031    0.036    0.003   -0.002   -0.001    0.004    0.002
   6.20    1.185    1.185    1.186   -0.019    0.032    0.071   -0.019    0.032    0.002   -0.001   -0.001    0.003    0.001
   6.25    1.199    1.199    1.199   -0.031    0.021    0.085   -0.031    0.021    0.002   -0.003   -0.001    0.004    0.002
   6.30    1.200    1.200    1.201   -0.035    0.033    0.086   -0.035    0.033    0.003   -0.003   -0.001    0.005    0.002
   6.35    1.206    1.207    1.207   -0.032    0.029    0.092   -0.032    0.029    0.003   -0.003   -0.001    0.005    0.002
   6.40    1.205    1.206    1.206   -0.035    0.023    0.091   -0.035    0.023    0.002   -0.003   -0.001    0.005    0.002
   6.45    1.205    1.206    1.206   -0.042    0.016    0.091   -0.042    0.016    0.001   -0.004   -0.001    0.005    0.002
   6.50    1.211    1.212    1.212   -0.039    0.026    0.097   -0.039    0.026    0.003   -0.004   -0.001    0.006    0.002
   6.55    1.237    1.238    1.239   -0.060    0.027    0.123   -0.060    0.027    0.003   -0.007   -0.002    0.010    0.004
   6.60    1.243    1.245    1.246   -0.070    0.041    0.129   -0.070    0.041    0.005   -0.009   -0.003    0.012    0.005
   6.65    1.259    1.260    1.261   -0.059    0.039    0.145   -0.059    0.039    0.006   -0.008   -0.002    0.013    0.005
   6.70    1.276    1.277    1.277   -0.048    0.024    0.162   -0.048    0.024    0.004   -0.008   -0.001    0.015    0.004
   6.75    1.278    1.279    1.279   -0.033    0.012    0.164   -0.033    0.012    0.002   -0.005   -0.000    0.014    0.003
   6.80    1.292    1.292    1.292   -0.026    0.013    0.178   -0.026    0.013    0.002   -0.005   -0.000    0.016    0.003
   6.85    1.295    1.295    1.296   -0.026    0.031    0.181   -0.026    0.031    0.006   -0.005   -0.001    0.017    0.004
   6.90    1.290    1.290    1.290   -0.022    0.026    0.176   -0.022    0.026    0.005   -0.004   -0.001    0.016    0.003
   6.95    1.280    1.280    1.281   -0.039    0.028    0.166   -0.039    0.028    0.005   -0.006   -0.001    0.015    0.004
   7.00    1.296    1.297    1.297   -0.052    0.022    0.182   -0.052    0.022    0.004   -0.009   -0.001    0.018    0.005
   7.05    1.281    1.281    1.282   -0.046    0.036    0.167   -0.046    0.036    0.006   -0.008   -0.002    0.016    0.005
   7.10    1.262    1.264    1.265   -0.065    0.051    0.148   -0.065    0.051    0.007   -0.010   -0.003    0.014    0.006
   7.15    1.273    1.274    1.275   -0.063    0.038    0.159   -0.063    0.038    0.006   -0.010   -0.002    0.015    0.006
   7.20    1.272    1.273    1.273   -0.048    0.038    0.158   -0.048    0.038    0.006   -0.008   -0.002    0.014    0.005
   7.25    1.281    1.282    1.282   -0.055    0.025    0.167   -0.055    0.025    0.004   -0.009   -0.001    0.016    0.005
   7.30    1.280    1.281    1.282   -0.067    0.028    0.166   -0.067    0.028    0.005   -0.011   -0.002    0.016    0.006
   7.35    1.262    1.263    1.263   -0.060    0.029    0.148   -0.060    0.029    0.004   -0.009   -0.002    0.013    0.005
   7.40    1.276    1.277    1.277   -0.058    0.024    0.162   -0.058    0.024    0.004   -0.009   -0.001    0.015    0.005
   7.45    1.293    1.294    1.294   -0.057    0.018    0.179   -0.057    0.018    0.003   -0.010   -0.001    0.018    0.005
   7.50    1.285    1.286    1.286   -0.038    0.011    0.171   -0.038    0.011    0.002   -0.007   -0.000    0.015    0.003
   7.55    1.276    1.277    1.277   -0.045    0.009    0.162   -0.045    0.009    0.001   -0.007   -0.000    0.014    0.004
   7.60    1.292    1.293    1.293   -0.040    0.011    0.178   -0.040    0.011    0.002   -0.007   -0.000    0.017    0.004
   7.65    1.269    1.270    1.270   -0.034    0.009    0.155   -0.034    0.009    0.001   -0.005   -0.000    0.013    0.003
   7.70    1.270    1.270    1.270   -0.048    0.010    0.156   -0.048    0.010    0.002   -0.007   -0.000    0.013    0.004
   7.75    1.261    1.262    1.262   -0.038    0.013    0.147   -0.038    0.013    0.002   -0.006   -0.000    0.012    0.003
   7.80    1.243    1.244    1.244   -0.033    0.023    0.129   -0.033    0.023    0.003   -0.004   -0.001    0.009    0.003
   7.85    1.236    1.237    1.237   -0.019    0.027    0.122   -0.019    0.027    0.003   -0.002   -0.001    0.008    0.002
   7.90    1.229    1.229    1.229   -0.002    0.030    0.115   -0.002    0.030    0.003   -0.000   -0.000    0.007    0.002
   7.95    1.229    1.229    1.229   -0.015    0.037    0.115   -0.015    0.037    0.004   -0.002   -0.001    0.007    0.002
   8.00    1.236    1.236    1.237   -0.003    0.043    0.122   -0.003    0.043    0.005   -0.000   -0.000    0.008    0.003
   8.05    1.252    1.252    1.253   -0.009    0.039    0.138   -0.009    0.039    0.005   -0.001   -0.000    0.010    0.003
   8.10    1.247    1.247    1.248   -0.011    0.028    0.133   -0.011    0.028    0.004   -0.001   -0.000    0.009    0.002
   8.15    1.257    1.257    1.258   -0.005    0.028    0.143   -0.005    0.028    0.004   -0.001   -0.000    0.011    0.002
   8.20    1.275    1.275    1.275   -0.014    0.016    0.161   -0.014    0.016    0.003   -0.002   -0.000    0.013    0.002
   8.25    1.266    1.266    1.266   -0.017    0.015    0.152   -0.017    0.015    0.002   -0.003   -0.000    0.012    0.002
   8.30    1.263    1.263    1.263    0.017    0.013    0.149    0.017    0.013    0.002    0.002    0.000    0.011    0.002
   8.35    1.259    1.259    1.259    0.025    0.016    0.145    0.025    0.016    0.002    0.004    0.000    0.011    0.002
   8.40    1.261    1.261    1.262    0.030    0.020    0.147    0.030    0.020    0.003    0.004    0.001    0.011    0.003
   8.45    1.258    1.259    1.259    0.032    0.019    0.144    0.032    0.019    0.003    0.005    0.001    0.011    0.003
   8.50    1.248    1.249    1.249    0.027    0.024    0.134    0.027    0.024    0.003    0.004    0.001    0.010    0.002
   8.55    1.255    1.255    1.256    0.026    0.034    0.141    0.026    0.034    0.005    0.004    0.001    0.011    0.003
   8.60    1.269    1.269    1.269    0.019    0.018    0.155    0.019    0.018    0.003    0.003    0.000    0.012    0.002
   8.65    1.260    1.260    1.260    0.020    0.025    0.146    0.020    0.025    0.004    0.003    0.000    0.011    0.002
   8.70    1.253    1.253    1.253    0.027    0.030    0.139    0.027    0.030    0.004    0.004    0.001    0.010    0.003
   8.75    1.265    1.266    1.266    0.044    0.022    0.151    0.044    0.022    0.003    0.007    0.001    0.013    0.004
   8.80    1.274    1.275    1.275    0.051    0.022    0.160    0.051    0.022    0.004    0.008    0.001    0.014    0.004
   8.85    1.279    1.280    1.280    0.038    0.020    0.165    0.038    0.020    0.003    0.006    0.001    0.015    0.004
   8.90    1.290    1.291    1.291    0.040    0.021    0.176    0.040    0.021    0.004    0.007    0.001    0.016    0.004
   8.95    1.288    1.288    1.288    0.029    0.007    0.174    0.029    0.007    0.001    0.005    0.000    0.016    0.003
   9.00    1.286    1.286    1.286    0.016   -0.013    0.172    0.016   -0.013   -0.002    0.003   -0.000    0.015    0.002
   9.05    1.307    1.307    1.307    0.015   -0.014    0.193    0.015   -0.014   -0.003    0.003   -0.000    0.019    0.002
   9.10    1.303    1.303    1.303    0.018    0.002    0.189    0.018    0.002    0.000    0.003    0.000    0.018    0.002
   9.15    1.301    1.301    1.301    0.014    0.010    0.187    0.014    0.010    0.002    0.003    0.000    0.018    0.002
   9.20    1.276    1.276    1.276    0.011    0.016    0.162    0.011    0.016    0.003    0.002    0.000    0.013    0.002
   9.25    1.256    1.257    1.257    0.035    0.016    0.142    0.035    0.016    0.002    0.005    0.001    0.011    0.003
   9.30    1.273    1.274    1.274    0.047    0.022    0.159    0.047    0.022    0.003    0.008    0.001    0.014    0.004
   9.35    1.273    1.274    1.274    0.040    0.025    0.159    0.040    0.025    0.004    0.006    0.001    0.014    0.004
   9.40    1.277    1.278    1.278    0.044    0.018    0.163    0.044    0.018    0.003    0.007    0.001    0.014    0.004
   9.45    1.278    1.279    1.279    0.043    0.016    0.164    0.043    0.016    0.003    0.007    0.001    0.015    0.004
   9.50    1.302    1.303    1.303    0.039    0.015    0.188    0.039    0.015    0.003    0.007    0.001    0.019    0.004
   9.55    1.315    1.316    1.316    0.052    0.003    0.201    0.052    0.003    0.001    0.010    0.000    0.022    0.005
   9.60    1.312    1.314    1.314    0.066    0.003    0.198    0.066    0.003    0.001    0.013    0.000    0.022    0.007
   9.65    1.311    1.313    1.313    0.066   -0.009    0.197    0.066   -0.009   -0.002    0.013   -0.001    0.022    0.007
   9.70    1.303    1.304    1.304    0.058   -0.003    0.189    0.058   -0.003   -0.001    0.011   -0.000    0.019    0.005
   9.75    1.307    1.308    1.308    0.051   -0.002    0.194    0.051   -0.002   -0.000    0.010   -0.000    0.020    0.005
   9.80    1.320    1.320    1.320    0.037    0.014    0.206    0.037    0.014    0.003    0.008    0.001    0.022    0.004
   9.85    1.319    1.320    1.320    0.043    0.012    0.205    0.043    0.012    0.002    0.009    0.001    0.022    0.005
   9.90    1.325    1.325    1.325    0.024    0.013    0.211    0.024    0.013    0.003    0.005    0.000    0.023    0.003
   9.95    1.318    1.319    1.319    0.020    0.013    0.204    0.020    0.013    0.003    0.004    0.000    0.021    0.002
  10.00    1.311    1.312    1.312    0.022    0.017    0.197    0.022    0.017    0.003    0.004    0.000    0.020    0.003
  10.05    1.315    1.315    1.315    0.010    0.013    0.201    0.010    0.013    0.003    0.002    0.000    0.020    0.002
  10.10    1.306    1.306    1.306    0.011    0.019    0.192    0.011    0.019    0.004    0.002    0.000    0.019    0.002
  10.15    1.313    1.313    1.313    0.022    0.013    0.199    0.022    0.013    0.003    0.004    0.000    0.020    0.003
  10.20    1.320    1.320    1.320    0.014    0.028    0.206    0.014    0.028    0.006    0.003    0.000    0.022    0.003
  10.25    1.317    1.317    1.317    0.006    0.019    0.203    0.006    0.019    0.004    0.001    0.000    0.021    0.002
  10.30    1.318    1.318    1.318    0.010    0.004    0.204    0.010    0.004    0.001    0.002    0.000    0.021    0.001
  10.35    1.322    1.322    1.322   -0.001   -0.004    0.208   -0.001   -0.004   -0.001   -0.000    0.000    0.022    0.000
  10.40    1.317    1.317    1.317   -0.012   -0.001    0.203   -0.012   -0.001   -0.000   -0.002    0.000    0.021    0.001
  10.45    1.319    1.319    1.319   -0.022   -0.003    0.205   -0.022   -0.003   -0.001   -0.005    0.000    0.021    0.002
  10.50    1.312    1.313    1.313   -0.041   -0.004    0.198   -0.041   -0.004   -0.001   -0.008    0.000    0.020    0.004
  10.55    1.309    1.310    1.310   -0.041    0.008    0.195   -0.041    0.008    0.002   -0.008   -0.000    0.020    0.004
  10.60    1.323    1.324    1.324   -0.042    0.013    0.209   -0.042    0.013    0.003   -0.009   -0.001    0.023    0.005
  10.65    1.310    1.311    1.311   -0.050    0.014    0.196   -0.050    0.014    0.003   -0.010   -0.001    0.021    0.005
  10.70    1.299    1.300    1.300   -0.035    0.007    0.185   -0.035    0.007    0.001   -0.006   -0.000    0.018    0.003
  10.75    1.288    1.289    1.289   -0.026    0.016    0.174   -0.026    0.016    0.003   -0.005   -0.000    0.016    0.003
  10.80    1.275    1.275    1.275   -0.026    0.028    0.161   -0.026    0.028    0.004   -0.004   -0.001    0.014    0.003
  10.85    1.293    1.293    1.293   -0.024    0.023    0.179   -0.024    0.023    0.004   -0.004   -0.001    0.017    0.003
  10.90    1.291    1.292    1.292   -0.029    0.028    0.177   -0.029    0.028    0.005   -0.005   -0.001    0.017    0.004
  10.95    1.295    1.296    1.296   -0.046    0.010    0.181   -0.046    0.010    0.002   -0.008   -0.000    0.018    0.004
  11.00    1.277    1.278    1.278   -0.037    0.015    0.163   -0.037    0.015    0.002   -0.006   -0.001    0.014    0.003
  11.05    1.267    1.268    1.268   -0.044    0.023    0.153   -0.044    0.023    0.003   -0.007   -0.001    0.013    0.004
  11.10    1.258    1.259    1.260   -0.052    0.020    0.144   -0.052    0.020    0.003   -0.008   -0.001    0.012    0.004
  11.15    1.236    1.237    1.238   -0.049    0.015    0.122   -0.049    0.015    0.002   -0.006   -0.001    0.009    0.003
  11.20    1.247    1.248    1.248   -0.054    0.005    0.133   -0.054    0.005    0.001   -0.007   -0.000    0.010    0.004
  11.25    1.259    1.260    1.260   -0.043   -0.017    0.145   -0.043   -0.017   -0.002   -0.006    0.001    0.012    0.003
  11.30    1.249    1.250    1.250   -0.042   -0.015    0.135   -0.042   -0.015   -0.002   -0.006    0.001    0.010    0.003
  11.35    1.254    1.254    1.254   -0.027   -0.015    0.140   -0.027   -0.015   -0.002   -0.004    0.000    0.010    0.002
  11.40    1.254    1.254    1.255   -0.040   -0.016    0.140   -0.040   -0.016   -0.002   -0.006    0.001    0.011    0.003
  11.45    1.247    1.247    1.247   -0.024   -0.010    0.133   -0.024   -0.010   -0.001   -0.003    0.000    0.009    0.002
  11.50    1.275    1.276    1.276   -0.035   -0.005    0.162   -0.035   -0.005   -0.001   -0.006    0.000    0.014    0.003
  11.55    1.268    1.268    1.268   -0.021   -0.001    0.154   -0.021   -0.001   -0.000   -0.003    0.000    0.012    0.002
  11.60    1.255    1.255    1.255   -0.014   -0.013    0.141   -0.014   -0.013   -0.002   -0.002    0.000    0.010    0.001
  11.65    1.259    1.260    1.260   -0.037   -0.007    0.145   -0.037   -0.007   -0.001   -0.005    0.000    0.011    0.003
  11.70    1.252    1.253    1.253   -0.037    0.001    0.138   -0.037    0.001    0.000   -0.005   -0.000    0.010    0.003
  11.75    1.252    1.253    1.253   -0.055   -0.014    0.138   -0.055   -0.014   -0.002   -0.008    0.001    0.011    0.004