
This full-field turbulence file was generated by TurbSim (v1.08.01a-bjj, 4-Sep-2014) on 04-Sep-2014 at 11:04:08.

 | u-comp |  Y  x  Z  | Grid Resolution (Y x Z) | Time-step | Hub Elev | Mean U |
            13    13      6.667      6.667          0.050      84.29     15.00

 Z Coordinates (m):
  -40.000 -33.333 -26.667 -20.000 -13.333  -6.667   0.000   6.667  13.333  20.000  26.667  33.333  40.000

 Y Coordinates (m):
  -40.000 -33.333 -26.667 -20.000 -13.333  -6.667   0.000   6.667  13.333  20.000  26.667  33.333  40.000

    0.000  21.871
   18.106  16.059  14.851  18.033  19.087  21.068  22.739  21.654  22.906  19.247  19.811  16.026  18.549
   15.166  18.211  16.234  16.722  18.620  21.612  22.762  23.771  21.401  22.280  20.290  17.199  17.362
   16.336  17.521  15.996  17.350  17.517  20.567  19.912  21.328  23.914  20.333  19.964  16.726  16.359
   19.347  19.759  15.679  18.500  17.375  17.704  18.516  19.290  21.252  20.595  18.951  17.501  15.668
   17.606  18.326  16.734  16.590  16.400  19.671  18.080  18.719  17.947  21.804  17.372  17.179  18.089
   20.210  19.882  19.323  16.097  16.258  17.447  18.239  17.057  21.514  20.156  17.411  18.802  18.214
   19.127  19.428  18.474  18.388  17.456  20.097  21.871  20.448  21.966  21.675  17.798  15.861  17.118
   20.426  18.680  16.741  17.499  18.487  19.815  19.734  20.911  19.886  20.436  19.404  15.808  15.996
   19.788  20.582  19.459  18.683  17.294  21.012  19.540  20.942  22.488  19.763  14.505  13.979  12.448
   21.026  18.619  18.886  16.206  18.077  19.405  21.402  22.976  21.414  19.369  13.950  10.317  12.225
   20.233  16.858  16.143  16.892  15.022  20.475  19.774  18.352  17.868  16.967  13.165  12.245  10.579
   16.044  12.964  13.967  14.496  14.856  17.623  17.980  16.456  17.427  20.261  18.128  14.463  15.174
   13.087  14.654  11.943  14.403  14.771  14.827  15.166  16.675  14.871  17.656  17.107  16.191  16.204

    0.050  21.380
   17.683  15.715  14.940  17.838  19.183  20.652  22.293  22.229  23.291  19.305  20.151  16.313  18.167
   15.195  16.787  16.609  16.143  18.133  20.961  23.185  22.931  21.856  23.503  19.622  17.625  16.749
   17.054  17.695  16.105  17.434  17.480  20.408  19.725  21.866  23.105  20.583  20.314  18.202  16.551
   19.076  19.815  15.917  17.732  17.407  17.930  17.737  19.197  20.387  19.964  17.966  17.700  15.545
   17.810  19.256  15.871  16.040  15.722  18.379  18.293  17.903  18.029  22.433  16.330  17.321  16.852
   19.924  19.737  18.698  16.636  16.734  17.955  18.447  16.862  21.025  20.594  17.522  17.638  18.609
   19.689  19.059  18.800  18.440  17.768  19.763  21.380  20.823  21.441  21.681  18.825  16.040  17.160
   20.432  19.737  17.084  17.047  18.418  20.295  19.091  20.713  20.538  19.796  18.754  15.759  16.323
   19.970  19.499  19.377  17.790  18.379  20.738  20.181  21.225  21.276  20.242  14.021  14.123  12.665
   20.710  18.514  18.222  16.281  18.169  20.044  21.071  22.544  21.819  18.856  14.627  10.471  12.132
   18.955  16.555  15.521  17.315  14.579  19.453  19.704  18.663  18.456  17.727  12.091  12.297  10.533
   15.668  12.370  14.251  14.087  15.190  17.374  17.559  15.724  17.008  20.193  18.360  14.689  15.248
   13.571  15.504  11.838  14.696  15.511  15.293  15.413  16.401  14.100  17.698  16.969  17.152  15.770

    0.100  20.704
   17.269  15.957  15.210  18.105  19.578  20.952  22.823  23.169  22.364  18.628  20.180  16.445  19.048
   14.910  16.549  16.118  16.741  18.095  21.037  22.535  22.477  22.398  22.889  19.583  17.295  17.317
   16.613  16.078  16.622  17.666  17.025  20.448  20.420  21.734  22.083  20.805  19.596  17.608  16.956
   19.188  18.528  16.322  17.947  17.443  18.635  18.050  18.725  19.763  21.332  17.276  17.893  15.032
   18.925  19.571  15.866  16.977  15.177  18.553  17.235  17.707  18.176  21.669  16.686  17.065  17.184
   21.332  18.781  19.309  16.705  16.547  18.590  17.591  17.264  21.665  20.803  16.412  18.173  18.480
   20.732  19.250  18.780  18.598  18.635  19.907  20.704  21.575  21.303  20.846  18.433  16.983  17.261
   20.308  19.546  16.676  16.664  18.563  20.146  18.467  20.414  20.361  20.332  19.315  15.914  16.430
   21.535  18.968  19.457  18.286  17.671  20.927  19.892  21.316  21.358  20.380  14.643  14.186  12.863
   20.907  19.485  18.283  15.940  18.262  20.133  21.443  22.035  21.571  17.964  14.121  10.384  12.068
   18.577  17.636  15.039  16.602  15.381  18.690  19.676  18.276  18.731  16.708  12.662  11.944   9.963
   14.403  12.740  14.192  12.272  14.884  16.560  18.428  16.583  16.674  19.917  16.950  15.011  16.213
   13.126  15.506  12.460  14.991  14.953  15.280  14.883  17.024  14.786  17.618  17.297  17.124  16.288

    0.150  22.208
   16.622  15.068  15.171  17.583  19.430  20.420  22.421  23.620  22.867  18.583  20.316  16.535  18.702
   14.858  16.244  16.470  16.470  17.436  20.253  22.628  23.249  21.989  22.639  20.060  16.926  17.880
   16.779  15.996  16.771  17.773  16.588  20.982  20.573  20.803  21.913  21.070  20.301  16.981  18.216
   18.960  20.260  15.451  18.005  17.849  18.765  18.332  18.920  19.193  21.440  16.993  17.321  15.487
   18.914  18.946  15.816  17.160  15.144  18.307  16.089  17.403  17.789  21.683  16.937  15.690  16.126
   22.176  20.273  19.389  16.757  15.923  18.692  17.909  17.672  22.011  21.179  16.710  19.761  18.246
   20.931  19.110  19.232  18.228  19.213  20.272  22.208  20.608  20.628  21.609  17.572  16.666  17.211
   20.439  19.824  16.956  16.633  18.436  19.990  18.614  20.964  20.180  20.577  20.240  16.442  16.883
   21.263  18.774  19.651  18.661  17.713  21.611  19.658  21.521  21.115  21.644  15.209  14.036  12.538
   20.473  19.801  18.344  15.440  17.840  20.200  22.279  22.075  21.949  17.888  14.333  10.758  11.862
   18.958  17.898  15.376  16.375  15.927  17.623  20.353  17.520  18.576  16.264  12.508  11.103  10.712
   13.739  13.337  13.962  12.655  14.283  16.882  18.088  17.428  16.551  19.776  16.748  15.487  16.145
   13.769  15.218  12.443  15.062  15.159  15.649  15.032  16.954  15.414  17.296  18.284  16.767  16.349

    0.200  22.068
   16.141  14.363  15.382  17.397  20.028  20.501  22.873  23.071  22.905  18.716  19.829  16.289  17.981
   15.300  15.852  16.540  16.459  18.240  20.917  22.507  23.294  21.974  23.292  20.789  17.973  17.440
   17.136  15.995  16.755  18.880  16.643  20.822  20.763  21.254  22.785  21.120  20.648  17.836  18.030
   19.422  19.961  13.923  17.916  17.776  18.460  17.246  18.312  19.743  21.676  16.125  18.602  15.766
   19.218  18.915  16.617  17.056  15.043  17.786  17.012  17.312  17.888  20.366  16.459  14.994  15.146
   20.560  20.877  18.550  16.276  16.441  18.002  18.505  17.680  22.264  21.545  16.897  18.630  17.592
   20.762  19.434  19.277  17.686  18.120  20.127  22.068  21.340  20.115  20.629  17.639  17.284  16.461
   20.229  18.970  16.698  16.089  17.545  20.100  18.482  20.943  20.321  19.738  19.639  15.953  16.625
   20.485  18.823  19.314  17.900  17.381  22.051  20.681  22.835  20.802  21.566  15.225  15.408  12.883
   20.872  19.377  17.832  15.091  17.755  21.154  21.835  21.982  22.024  17.764  15.010  11.812  12.325
   18.378  16.999  15.172  15.170  16.575  18.088  20.367  16.684  19.591  16.773  12.236  11.656  11.120
   14.192  14.339  13.668  12.174  14.526  17.172  17.149  17.021  17.436  19.700  16.499  14.618  16.950
   13.789  14.636  11.475  15.261  14.832  15.694  16.015  17.423  14.589  16.124  17.471  15.863  16.449

    0.250  21.688
   16.572  13.849  14.868  17.215  19.727  19.629  23.268  21.843  23.426  19.212  19.538  16.052  16.661
   14.956  14.714  16.151  16.131  17.546  20.350  21.943  23.606  21.965  22.288  19.897  17.769  16.490
   18.193  16.790  17.368  17.922  16.379  20.881  20.612  20.401  22.298  21.268  20.398  16.927  17.511
   19.882  20.328  13.642  18.467  18.288  17.560  17.115  18.877  20.035  22.601  16.450  18.302  15.201
   19.405  18.259  15.609  16.942  13.850  17.980  17.571  17.472  19.088  20.413  17.209  16.289  15.163
   21.097  20.391  18.223  15.850  16.709  18.080  17.934  18.758  20.821  21.619  15.710  19.074  17.339
   19.927  20.276  18.799  17.177  18.174  19.294  21.688  21.336  20.098  20.144  17.488  17.562  16.965
   20.801  19.651  16.143  14.944  17.522  19.529  18.109  20.771  20.828  19.123  19.828  15.901  17.249
   20.671  18.812  20.158  17.729  17.202  20.948  21.334  23.157  20.933  20.669  14.041  15.909  13.090
   20.162  19.733  18.518  15.241  17.948  21.620  22.649  22.122  21.462  18.028  15.289  11.794  12.556
   18.606  16.633  15.751  14.600  15.769  17.992  19.842  16.659  19.840  18.090  13.180  13.524  10.683
   14.304  14.014  12.734  11.897  15.496  17.796  17.983  17.199  17.333  19.459  15.933  14.538  16.916
   13.096  14.644  12.118  15.118  13.554  15.304  16.934  17.599  14.336  16.514  15.884  15.762  16.124

    0.300  21.016
   16.363  14.599  14.964  17.286  18.522  19.611  22.557  21.357  21.758  18.376  19.614  16.017  16.908
   13.929  14.292  15.507  15.664  17.156  21.097  22.652  23.863  21.731  22.073  20.275  17.344  16.187
   18.021  15.640  16.285  17.241  17.970  20.073  20.932  20.680  21.469  21.629  20.776  16.588  17.177
   19.310  19.978  13.627  19.505  18.986  17.505  17.602  19.208  20.663  22.963  16.384  19.012  14.962
   19.037  18.654  16.618  16.629  13.992  17.832  17.102  17.250  18.672  20.437  16.898  16.344  14.624
   21.089  20.891  18.351  15.601  16.621  18.902  17.366  19.409  20.604  20.458  16.933  19.084  17.729
   19.543  19.732  19.329  17.087  17.449  18.898  21.016  21.394  20.954  19.983  17.144  17.802  16.645
   21.107  18.889  16.033  15.272  17.754  19.725  18.348  20.448  20.675  18.460  18.884  16.702  17.242
   20.356  17.994  20.112  17.795  17.767  21.714  21.393  22.998  20.954  20.129  14.455  16.195  12.615
   20.407  20.536  19.119  14.367  18.267  22.744  23.226  21.544  21.160  18.653  14.847  12.131  13.457
   19.234  16.869  16.201  14.477  16.788  17.845  19.192  17.578  19.190  18.526  13.398  13.243  10.975
   14.617  13.627  13.224  12.272  15.166  16.997  17.368  17.517  17.412  19.767  14.954  15.927  15.524
   13.158  14.466  13.969  15.929  13.610  14.708  17.331  17.195  14.143  16.633  16.533  16.539  15.409

    0.350  20.994
   15.795  14.675  14.811  18.316  19.132  19.299  22.555  21.696  21.547  19.224  20.362  15.173  17.162
   12.856  14.997  15.009  15.803  16.882  20.075  22.862  23.852  21.831  22.005  21.062  17.219  17.347
   18.039  15.171  15.502  16.928  17.718  19.545  20.121  21.183  21.651  21.651  20.787  16.714  17.559
   18.931  19.537  13.995  18.817  19.729  17.654  17.455  19.375  20.719  23.123  17.073  18.487  15.155
   19.324  18.652  18.512  16.274  13.487  18.279  16.610  18.818  18.740  19.949  16.545  15.710  15.584
   20.770  20.552  18.489  15.604  16.829  17.979  17.350  19.440  21.669  19.955  17.760  18.603  17.104
   20.027  20.351  18.543  16.955  18.180  18.451  20.994  21.027  20.960  20.258  17.533  17.253  16.816
   21.063  18.490  17.100  15.415  16.703  20.041  17.648  20.305  20.737  18.707  18.949  16.244  17.195
   20.691  18.234  19.601  17.918  16.684  22.013  21.110  22.296  21.262  20.134  14.828  16.679  12.233
   20.358  20.270  20.167  14.817  18.917  22.041  22.688  21.270  20.707  17.730  14.295  13.291  12.832
   19.959  16.541  15.331  13.756  16.189  17.902  19.483  16.785  18.784  18.955  13.785  12.272  10.723
   15.018  14.309  14.000  13.006  14.647  17.790  18.185  18.552  17.411  19.905  14.981  14.750  14.533
   13.004  14.769  14.386  15.487  13.702  15.109  17.453  15.903  14.632  15.724  16.155  16.466  14.990

    0.400  21.209
   14.748  15.655  15.381  17.622  19.379  20.343  22.021  21.191  21.642  19.022  20.333  15.601  16.126
   13.772  15.359  15.368  15.984  16.558  19.582  23.446  24.160  21.655  22.120  21.024  17.234  17.188
   17.247  14.686  15.521  16.481  18.096  20.030  19.381  21.463  21.008  20.582  20.927  17.134  17.291
   17.266  20.086  14.164  17.408  19.218  17.546  18.192  19.010  20.612  23.318  17.549  17.549  15.821
   19.515  18.971  18.328  17.259  13.682  19.317  16.655  18.493  19.931  20.252  17.308  15.823  16.254
   21.187  20.868  17.969  14.661  16.129  18.909  16.466  18.752  21.775  19.717  17.917  18.918  16.005
   20.886  20.187  18.313  16.508  17.141  18.282  21.209  21.908  20.416  19.596  17.347  16.196  16.540
   20.850  18.471  17.234  15.651  17.506  20.718  18.345  20.116  21.364  18.711  19.092  16.650  17.006
   20.738  18.252  19.493  18.646  17.073  21.946  20.830  21.654  21.480  19.124  15.210  16.386  11.986
   19.813  19.512  21.213  16.180  18.776  21.428  21.960  21.132  20.381  17.712  14.099  13.457  12.971
   20.165  16.255  15.615  13.590  14.820  18.428  20.206  16.629  19.545  18.556  13.456  12.332  10.058
   13.884  14.722  13.763  13.601  14.159  17.628  18.407  18.469  18.077  18.749  14.991  14.120  14.612
   13.458  15.049  14.658  14.951  13.011  15.652  18.072  16.922  15.097  15.255  17.294  16.901  14.909

    0.450  21.658
   13.837  15.873  15.176  17.292  20.250  20.967  22.151  20.430  21.418  19.727  19.719  15.450  15.841
   13.488  15.143  15.600  15.901  17.669  20.100  23.546  24.020  22.228  21.805  19.721  17.897  17.417
   16.245  15.535  14.924  16.669  18.013  20.055  19.533  21.939  20.791  21.970  20.147  16.695  17.222
   16.795  19.907  15.383  17.333  18.632  17.428  17.015  18.455  20.693  22.897  17.747  17.658  16.099
   18.930  19.455  18.112  18.458  14.221  19.226  17.911  17.838  20.809  20.528  17.687  16.451  16.581
   21.157  21.293  18.735  14.819  16.295  19.100  17.004  18.305  21.394  19.068  17.566  18.388  15.624
   21.207  20.451  18.769  16.846  16.789  18.135  21.658  22.357  20.064  19.742  16.566  16.905  16.423
   20.367  18.047  17.302  16.353  17.630  19.492  18.299  21.191  21.180  18.755  19.090  16.831  16.559
   20.562  18.676  20.290  18.460  17.879  21.771  21.562  20.848  22.643  18.729  16.021  16.545  12.113
   20.220  19.804  21.149  15.385  18.235  20.897  22.084  21.790  20.363  17.845  14.336  14.256  12.088
   19.968  16.181  15.416  14.538  15.500  18.791  18.466  17.139  18.527  19.171  13.532  12.476  10.027
   13.602  14.867  14.359  14.085  14.329  16.810  17.825  18.074  16.981  18.930  14.381  14.530  14.768
   13.144  14.494  13.776  14.677  12.935  14.791  18.053  16.489  15.765  15.736  17.907  18.420  15.366

    0.500  20.947
   13.350  15.263  14.553  17.231  20.497  21.310  22.420  20.728  21.289  20.524  19.702  15.834  16.247
   13.088  14.494  16.192  17.647  17.579  20.440  24.035  25.304  22.594  22.335  19.738  18.077  17.425
   16.436  14.884  15.412  17.595  17.967  19.847  19.691  20.779  22.159  22.091  19.913  17.443  18.385
   17.469  19.635  15.910  17.095  17.799  17.875  18.410  18.338  20.513  23.012  18.110  19.062  14.988
   19.301  20.528  17.282  18.929  13.791  18.889  18.565  19.285  20.042  21.174  18.032  17.543  16.661
   21.112  21.280  17.975  15.287  16.465  18.578  17.540  18.856  20.814  19.192  18.081  18.589  16.263
   20.734  19.882  18.967  16.206  17.053  17.554  20.947  21.953  19.987  19.709  16.610  17.392  16.708
   20.623  17.818  17.643  17.930  17.657  19.713  17.727  21.208  20.228  19.359  18.668  17.457  16.697
   20.775  18.753  20.228  19.072  18.083  21.340  21.873  21.727  21.691  18.401  16.033  15.855  11.957
   19.512  19.520  21.172  15.610  18.357  21.605  21.142  21.916  19.443  17.971  13.289  14.864  12.006
   20.133  15.560  14.806  14.483  15.539  18.911  18.211  17.313  18.487  18.162  13.614  12.494  10.485
   14.111  14.336  14.349  13.744  13.950  16.656  17.675  18.043  16.627  19.010  14.809  14.636  14.665
   14.074  14.498  15.032  15.493  13.592  14.359  17.651  16.234  15.657  15.670  18.757  19.165  15.092

    0.550  20.273
   13.490  15.612  14.002  18.036  20.488  21.762  22.575  21.990  21.623  20.099  20.054  16.067  16.510
   11.910  14.774  17.130  17.925  17.647  20.249  24.366  24.748  23.515  21.267  19.988  17.778  17.228
   17.179  14.630  16.209  17.742  18.194  19.677  20.659  19.605  21.745  21.225  20.164  18.359  17.563
   17.406  18.502  15.678  16.382  18.948  18.144  18.114  19.040  19.757  22.852  18.281  19.243  14.520
   19.191  20.165  17.621  18.746  15.617  18.290  18.800  18.230  20.324  21.924  17.707  16.832  16.703
   20.800  21.479  17.426  14.821  15.501  18.520  17.235  18.559  19.605  19.186  18.100  17.769  16.044
   20.713  20.477  18.531  16.834  17.266  18.428  20.273  21.789  19.187  20.050  16.905  18.210  17.566
   19.435  18.632  17.824  17.590  17.656  19.278  17.849  21.051  19.387  17.601  19.014  17.651  17.463
   19.898  19.903  19.943  19.167  17.391  21.253  21.734  21.328  19.978  18.074  16.040  15.350  12.194
   19.214  19.347  20.584  16.378  17.551  21.384  21.246  22.453  19.588  17.577  13.753  15.045  11.658
   19.664  15.293  14.743  14.718  17.056  18.758  18.444  17.540  18.309  17.870  12.678  13.591  10.280
   14.142  15.069  14.205  14.424  14.288  15.964  17.672  18.207  17.272  18.525  15.459  14.449  14.375
   12.972  15.082  15.836  15.737  14.284  15.128  17.511  16.502  16.232  16.253  19.666  18.858  15.446

    0.600  20.530
   14.973  16.375  14.996  17.963  19.506  21.730  22.678  21.586  22.068  19.376  19.794  17.283  17.020
   12.527  14.883  16.607  18.078  17.996  20.896  24.653  24.649  23.673  20.842  20.179  17.824  16.652
   17.946  14.903  15.664  17.770  18.190  19.572  20.532  20.986  21.952  21.603  20.919  17.669  17.218
   18.121  18.716  15.159  16.716  18.432  18.720  18.703  18.552  20.450  21.983  16.988  18.999  14.885
   18.265  20.116  17.671  18.034  15.941  18.422  18.922  18.336  20.765  21.761  17.910  17.324  16.128
   19.785  21.298  18.043  15.667  15.361  17.941  16.829  19.248  19.700  18.918  18.202  18.530  15.749
   21.209  21.101  17.784  17.079  16.744  18.697  20.530  21.695  18.873  19.935  17.846  18.950  17.497
   19.996  18.087  17.881  17.720  18.473  19.358  17.214  21.235  18.953  17.948  19.095  17.819  16.500
   18.396  18.846  20.417  18.341  17.795  21.564  21.604  21.160  19.736  18.010  16.057  15.565  11.602
   18.363  18.779  20.264  17.266  17.464  20.446  21.431  22.046  18.982  17.994  14.874  15.484  12.270
   19.234  17.040  14.445  13.492  18.717  19.189  18.386  18.056  19.371  18.919  13.161  14.806  10.764
   15.231  16.138  14.251  14.525  14.591  16.541  17.146  18.487  17.243  18.560  16.041  15.451  14.852
   12.863  15.021  14.777  15.696  13.849  15.513  17.704  16.965  16.680  16.796  19.336  19.112  16.102

    0.650  20.804
   15.872  17.020  15.332  18.119  20.466  21.027  21.488  21.688  22.948  19.766  19.475  16.358  16.382
   12.349  14.663  17.559  16.884  17.998  21.522  23.849  24.801  23.194  20.793  20.445  17.245  17.755
   18.284  14.517  15.970  17.017  17.964  18.542  20.779  21.381  21.651  21.230  21.865  17.652  17.073
   18.135  18.887  15.736  17.365  18.491  17.893  17.935  18.365  20.694  21.780  17.168  18.912  15.716
   17.459  18.666  17.783  17.455  15.624  18.938  16.523  17.114  21.025  21.476  18.120  17.301  15.443
   19.614  20.909  17.796  15.772  15.580  17.238  17.104  19.290  19.762  19.148  19.134  17.876  16.727
   20.453  21.321  17.006  16.323  16.100  20.086  20.804  21.570  19.372  20.402  18.138  19.682  17.234
   19.289  17.712  18.104  18.127  19.299  18.936  18.120  20.634  19.171  18.751  18.664  18.273  16.724
   17.821  18.646  20.169  17.970  18.491  20.869  20.882  21.319  19.931  18.236  16.420  15.862  11.320
   19.012  18.881  19.608  17.378  18.249  21.038  21.911  21.650  18.960  17.281  14.366  14.996  12.520
   18.272  16.562  14.494  12.908  18.761  18.536  18.399  18.734  18.598  17.768  14.123  14.403  10.516
   14.874  16.428  14.108  14.301  15.572  17.250  16.850  18.908  17.025  17.858  16.060  15.327  14.783
   12.534  14.523  15.082  15.262  13.876  15.483  17.317  16.333  17.002  17.089  17.936  19.576  17.080

    0.700  20.809
   14.850  16.625  14.817  18.077  20.235  21.179  21.204  20.728  22.794  20.721  19.552  16.399  15.562
   13.240  15.491  18.389  16.993  18.272  20.820  22.992  25.387  22.579  21.363  19.691  17.035  17.643
   17.958  14.923  16.236  16.836  17.970  17.726  20.697  21.221  21.789  20.697  21.646  17.684  17.281
   18.016  19.222  16.053  17.181  17.422  17.310  16.243  18.508  20.840  21.638  17.408  18.431  15.666
   18.739  18.813  18.006  17.277  15.867  18.806  16.751  17.318  20.898  20.482  18.801  17.207  15.659
   18.213  21.336  16.914  16.095  15.202  17.155  17.053  18.430  19.793  19.444  18.562  18.431  16.959
   20.011  21.398  17.552  16.824  16.222  19.692  20.809  21.139  18.900  20.220  17.347  18.695  18.115
   18.867  18.403  18.578  18.175  18.552  18.693  18.513  21.198  18.673  18.542  18.195  18.392  16.533
   17.843  18.405  19.826  18.037  18.707  20.744  21.517  22.044  20.373  18.886  17.577  15.700  12.329
   18.684  18.664  19.721  17.430  18.907  21.729  22.102  20.668  19.217  18.473  15.438  15.183  12.809
   17.859  16.108  14.670  12.657  19.202  17.779  17.863  17.430  18.300  16.774  13.443  14.403  10.670
   15.564  16.864  13.849  14.105  15.752  16.476  16.494  20.000  15.876  17.138  15.625  15.023  14.702
   12.977  13.663  14.881  14.709  14.197  15.424  16.163  16.758  17.525  16.864  18.568  20.094  16.558

    0.750  20.926
   14.281  16.105  15.967  17.983  19.256  21.602  20.661  20.880  22.171  20.563  19.793  16.817  16.136
   13.597  15.127  17.963  16.917  17.296  21.012  22.548  25.615  22.759  21.127  20.735  17.580  17.196
   17.031  15.492  16.279  16.962  18.259  18.412  21.524  21.874  21.634  20.212  21.446  17.883  17.149
   18.517  19.938  14.705  17.694  16.193  17.665  16.073  18.561  21.076  20.943  18.486  19.018  14.994
   17.892  19.701  17.701  17.256  15.074  19.334  17.456  17.781  21.197  19.942  19.548  17.836  15.529
   18.200  20.991  18.441  17.004  14.287  17.143  17.742  19.533  20.035  18.916  17.942  18.655  16.635
   19.409  21.231  17.135  16.961  16.236  19.481  20.926  22.571  20.287  20.023  16.522  17.514  18.057
   18.994  17.829  19.103  17.166  19.196  19.067  19.076  21.282  18.963  17.922  17.900  18.130  15.949
   17.598  18.930  20.024  17.753  18.465  20.330  22.171  21.922  20.852  18.973  18.498  14.408  13.361
   19.291  18.316  20.056  16.890  18.555  21.394  22.666  22.083  18.525  19.299  16.088  14.590  13.470
   17.374  16.536  14.937  12.969  17.824  17.323  17.689  17.432  18.614  17.414  13.297  14.355  10.664
   15.551  16.908  13.237  13.982  14.850  17.987  16.116  19.895  16.537  17.098  16.140  15.655  14.685
   13.094  13.270  14.531  15.231  13.924  15.381  15.941  16.178  17.720  15.825  19.045  19.745  16.932

    0.800  21.163
   15.433  15.630  15.338  18.486  19.299  22.097  20.898  21.414  21.702  19.899  19.677  17.886  16.715
   13.140  15.337  17.818  16.661  17.926  21.381  21.634  24.907  23.081  20.653  21.093  18.583  16.590
   16.537  16.343  16.463  16.904  16.533  18.250  21.619  21.592  21.658  19.937  21.657  18.194  18.453
   18.861  19.921  13.781  17.680  16.156  18.066  17.198  18.138  20.357  21.389  18.742  18.615  14.800
   17.823  19.682  19.281  18.486  15.385  18.602  18.647  18.136  21.067  21.111  18.901  17.842  16.516
   17.786  21.555  18.779  16.173  15.148  16.656  18.329  18.774  20.440  18.804  17.914  19.265  17.065
   19.142  20.494  17.820  16.562  16.809  19.067  21.163  22.202  20.986  20.692  17.677  16.447  17.888
   19.732  17.539  19.299  17.683  19.112  18.436  19.951  21.559  19.303  18.271  17.011  17.301  16.025
   17.096  18.172  19.891  18.002  18.481  20.782  22.100  21.364  21.747  19.317  18.495  14.230  13.319
   19.018  18.285  20.414  16.882  17.402  20.026  22.349  21.648  18.722  18.879  15.901  15.070  13.136
   17.008  17.303  15.654  13.973  16.894  18.760  17.941  17.610  19.218  16.305  12.635  14.160  11.085
   14.864  17.051  13.798  14.320  14.789  18.680  16.387  19.954  16.132  17.387  16.686  16.158  14.694
   13.835  13.742  14.643  15.558  13.777  15.746  16.932  16.364  17.590  16.080  18.700  19.375  17.259

    0.850  20.804
   15.847  15.317  15.619  18.303  19.298  22.470  21.320  20.535  22.818  19.831  19.727  18.348  16.147
   13.700  14.732  17.442  16.951  18.559  19.940  22.052  25.941  23.233  20.330  20.286  18.665  16.571
   14.903  17.143  15.229  16.507  16.427  17.543  21.550  22.090  21.740  19.764  21.442  17.641  16.857
   19.017  19.219  13.998  17.359  17.059  17.449  17.193  19.033  19.849  22.178  17.390  18.140  14.722
   17.873  19.143  19.420  18.454  14.847  17.679  18.455  17.202  21.240  21.400  18.573  16.844  15.877
   17.468  20.848  18.397  16.917  14.654  17.554  18.506  18.169  19.846  19.448  17.833  18.666  16.856
   19.125  19.526  18.616  16.655  17.424  19.856  20.804  21.943  20.872  20.916  18.467  16.581  18.412
   20.166  18.072  18.189  17.859  18.027  17.824  20.118  20.712  20.140  17.821  17.440  17.374  16.851
   17.391  19.436  19.139  18.487  19.907  20.713  22.578  20.755  21.556  18.806  18.333  14.493  13.473
   19.290  18.120  20.321  16.602  17.848  19.200  22.262  20.953  19.001  17.988  15.278  16.515  14.245
   16.980  17.093  15.291  14.155  17.123  19.573  17.860  18.248  19.111  16.911  13.333  13.601  11.008
   15.034  17.417  13.890  13.902  15.620  17.957  16.933  20.224  16.908  16.520  16.725  16.569  14.754
   13.519  14.555  14.048  15.508  14.123  15.580  17.117  16.793  16.715  15.763  19.182  20.034  16.498

    0.900  21.375
   15.807  15.896  15.856  18.592  19.641  21.888  20.651  20.703  23.062  20.429  20.986  17.528  15.522
   14.203  14.966  17.312  18.011  18.538  19.354  22.003  26.059  22.955  20.301  20.251  19.315  16.687
   15.315  18.009  14.563  16.262  16.673  18.725  22.378  21.922  22.055  19.586  21.268  17.555  17.252
   17.635  18.786  14.904  17.425  18.037  18.836  16.446  18.873  18.734  21.795  17.721  18.315  15.208
   19.017  20.006  20.260  17.418  14.917  18.330  18.312  17.332  21.411  21.280  18.390  17.382  15.050
   17.867  21.303  18.352  16.867  15.569  16.732  18.283  18.886  20.075  18.878  17.945  17.996  15.927
   20.133  19.255  18.127  16.872  18.197  19.110  21.375  22.460  20.497  20.354  18.797  15.962  18.041
   19.446  18.292  17.620  17.234  17.859  17.874  20.322  20.627  20.280  17.511  17.404  16.767  17.118
   18.035  19.500  19.259  18.737  19.967  20.909  22.476  20.673  21.295  18.107  18.487  14.742  13.208
   19.249  18.519  20.628  16.362  18.262  19.731  21.738  20.622  19.844  17.666  15.246  16.733  14.147
   16.765  17.205  15.349  14.905  15.967  20.490  17.755  17.588  19.254  16.055  13.744  13.543  10.643
   14.763  18.022  13.583  14.218  15.941  16.737  17.016  19.730  16.147  17.203  17.384  16.101  14.586
   14.361  14.708  14.042  16.192  14.067  15.773  17.177  15.715  16.088  15.927  18.170  20.096  16.332

    0.950  21.660
   14.048  16.587  15.300  18.480  19.513  20.544  20.750  20.732  23.575  20.910  20.521  17.795  16.265
   13.867  15.050  16.776  18.800  18.988  19.553  21.913  25.652  22.583  19.588  20.992  18.440  16.292
   15.714  16.562  14.425  16.879  17.001  19.079  21.926  22.344  21.815  19.942  21.287  17.904  17.164
   16.965  19.365  15.144  18.212  17.539  18.511  16.713  19.856  18.630  21.351  18.053  18.975  15.311
   18.617  20.044  20.115  17.287  15.250  17.980  17.751  18.258  21.800  21.198  18.805  18.199  15.928
   19.353  21.286  18.227  16.677  15.132  16.063  18.817  18.666  19.806  18.915  16.785  18.618  16.865
   20.982  19.717  17.556  16.942  18.001  18.789  21.660  22.677  20.721  20.592  19.518  15.393  18.038
   19.169  18.465  18.112  17.653  18.059  18.346  19.719  20.783  19.523  17.694  18.697  16.373  17.568
   17.773  18.982  19.006  17.706  20.965  20.593  21.978  20.567  21.925  18.403  18.227  15.200  13.898
   19.754  18.714  20.001  16.267  18.641  20.360  21.552  20.064  19.190  17.694  15.914  16.771  14.914
   17.492  17.664  15.295  14.944  16.028  21.531  18.534  16.333  18.597  16.571  14.854  13.240  11.884
   14.524  17.821  13.026  15.110  15.894  17.793  17.126  18.565  15.328  17.789  16.743  16.117  15.362
   14.380  15.605  13.969  15.287  13.351  15.818  17.286  15.571  16.561  16.229  18.007  19.589  16.494

    1.000  20.480
   14.229  16.602  14.547  18.551  19.403  20.549  20.187  20.346  23.432  20.866  21.018  18.200  15.457
   13.905  14.418  17.626  18.467  19.510  19.577  22.016  25.262  22.239  18.634  20.959  17.923  17.392
   15.633  16.280  14.636  17.143  17.255  18.257  21.626  22.020  21.210  20.357  20.567  17.841  17.752
   17.093  19.309  15.334  18.479  16.997  17.533  15.964  20.069  19.110  20.397  18.033  19.431  15.261
   17.731  19.693  19.816  17.425  15.583  18.604  17.191  19.458  21.718  20.433  17.949  18.626  16.416
   19.628  21.055  17.885  16.429  15.032  16.517  18.982  18.425  19.904  19.156  15.138  19.239  17.572
   20.011  20.026  17.843  17.346  17.904  19.465  20.480  22.449  20.738  20.806  18.762  15.149  18.191
   19.672  18.484  18.629  17.376  18.772  19.198  19.553  21.349  18.755  17.927  19.506  17.170  17.825
   18.697  19.709  20.136  16.829  20.859  20.766  21.942  20.337  21.954  18.549  17.579  15.383  14.169
   19.632  18.237  19.930  16.290  18.821  20.122  21.111  20.170  18.471  17.507  15.714  16.778  15.103
   16.983  17.731  15.705  15.675  16.369  21.175  19.455  16.537  19.103  16.838  14.886  13.536  12.366