
This full-field turbulence file was generated by TurbSim (v2.00.01a-bjj, 14-Oct-2014) on 14-Oct-2014 at 12:52:39.

 | w-comp |  Y  x  Z  | Grid Resolution (Y x Z) | Time-step | Hub Elev | Mean U |
             5     5      7.500      7.500          0.050      37.00      7.35

 Z Coordinates (m):
  -15.000  -7.500   0.000   7.500  15.000

 Y Coordinates (m):
  -15.000  -7.500   0.000   7.500  15.000

    0.000   1.326
    1.393   0.225   1.840   1.470   0.368
    1.921   0.381   0.576   1.404   1.461
    1.118   0.022   1.326  -0.088   1.555
    1.626   0.634  -0.195   1.509   0.731
    1.108   0.244   1.505   1.802   0.967

    0.050   1.243
    1.341   0.134   1.271   1.713   0.369
    2.232   0.368   0.500   1.725   1.616
    0.822   0.042   1.243  -0.252   1.550
    1.635   1.003  -0.259   1.218   0.934
    1.473   0.253   1.304   2.009   1.186

    0.100   1.467
    1.456   0.272   1.255   1.498   0.599
    2.491   0.848   0.638   1.841   1.296
    1.171   0.090   1.467  -0.101   1.433
    1.259   0.974  -0.024   1.391   0.684
    1.556   0.404   1.159   2.244   1.466

    0.150   1.329
    1.661   0.089   1.434   1.672   0.458
    2.769   0.588   0.912   1.188   1.747
    1.534   0.086   1.329   0.251   1.511
    0.780   0.855   0.153   1.767   0.318
    1.786   0.078   1.120   2.297   1.462

    0.200   1.481
    1.389  -0.037   1.509   1.390   0.551
    2.816   0.250   1.013   0.912   1.781
    1.423  -0.237   1.481   0.330   1.611
    1.121   1.179  -0.258   1.493   0.418
    1.365  -0.458   1.370   1.981   1.042

    0.250   1.655
    1.159   0.130   1.099   1.227   0.502
    2.621   0.259   1.047   1.106   1.746
    1.117  -0.099   1.655   0.514   2.074
    1.589   1.375  -0.014   1.290   0.245
    1.274  -0.796   1.506   1.479   0.844

    0.300   1.254
    0.856   0.033   1.386   1.407   0.734
    2.451   0.444   1.314   0.845   1.552
    0.732   0.090   1.254   0.490   2.063
    1.122   1.465  -0.312   1.592   0.424
    1.160  -0.610   1.237   1.660   1.239

    0.350   0.819
    0.953   0.025   1.717   1.451   0.909
    2.348   0.686   1.254   0.410   2.019
    0.723   0.152   0.819   0.215   2.374
    1.448   1.688  -0.348   1.392   0.608
    1.276  -0.533   1.027   1.987   1.223

    0.400   0.968
    0.738   0.055   1.762   0.859   0.984
    1.949   1.289   1.641   0.398   1.953
    0.928   0.306   0.968   0.349   2.382
    1.700   1.304  -0.241   1.498   0.594
    1.753  -0.722   0.952   1.598   1.039

    0.450   0.797
    1.052   0.372   1.764   1.161   0.973
    2.133   1.089   1.556   0.065   1.769
    1.332   0.296   0.797   0.432   2.712
    1.759   1.166  -0.145   1.562   0.870
    1.980  -0.618   1.232   1.026   1.126

    0.500   0.849
    0.722   0.318   2.080   1.136   1.495
    2.283   0.431   1.499   0.414   1.477
    1.202   0.569   0.849   0.806   2.874
    1.571   0.825  -0.268   1.313   0.665
    1.737  -0.395   1.019   0.826   0.806

    0.550   0.803
    0.877   0.306   1.791   0.964   1.396
    2.339   0.330   1.445   0.800   1.539
    1.376   0.463   0.803   0.384   2.682
    1.581   1.228   0.099   1.272   0.288
    2.141  -0.328   0.641   0.575   0.404

    0.600   0.963
    1.320  -0.138   1.782   1.307   0.900
    2.014   0.549   1.488   1.159   1.413
    1.241   0.565   0.963   0.141   2.527
    0.866   0.568   0.009   1.001   0.044
    2.181   0.033   0.449   0.816   0.341

    0.650   0.877
    1.622   0.007   1.348   1.582   0.806
    2.222   0.721   1.224   1.424   1.144
    1.159   0.417   0.877   0.307   2.499
    0.475   0.392  -0.244   0.980   0.107
    2.285   0.274   0.372   1.062   0.539

    0.700   0.660
    1.561   0.133   1.370   1.629   0.837
    2.029   0.874   1.159   1.106   1.064
    1.456   0.511   0.660   0.461   2.511
    0.462   0.289  -0.325   1.140   0.281
    2.094   0.077   1.090   0.815   0.686

    0.750   0.823
    1.744  -0.162   1.385   1.406   0.622
    1.982   1.010   1.175   0.692   1.162
    1.626   0.560   0.823   0.709   1.917
    0.664   0.666  -0.488   1.066   0.378
    2.173  -0.062   1.099   0.614   0.662

    0.800   1.053
    1.874   0.069   1.399   1.134   0.756
    1.926   1.096   1.157   0.506   1.033
    1.465   0.883   1.053   0.514   2.080
    0.680   0.766  -0.614   0.982   0.129
    1.773  -0.479   0.975   0.736   0.405

    0.850   0.979
    1.844   0.452   1.245   1.072   0.803
    1.688   0.680   1.081   0.808   1.145
    1.287   0.778   0.979   0.693   2.430
    0.639   1.138  -0.515   0.717   0.652
    1.965  -0.062   1.111   1.089   0.628

    0.900   0.954
    1.579   0.455   0.934   0.934   0.927
    1.280   0.926   1.174   0.910   1.210
    1.242   0.619   0.954   0.766   2.396
    0.816   1.365  -0.820   0.696   0.602
    2.261  -0.148   1.143   1.174   0.757

    0.950   1.087
    1.325   0.466   1.169   1.231   0.777
    1.013   1.295   1.240   0.846   0.714
    1.399   0.650   1.087   0.748   2.186
    0.812   1.438  -0.421   0.699   0.416
    2.215  -0.069   1.324   1.226   0.772

    1.000   0.984
    1.072   0.090   1.236   1.319   1.014
    1.508   1.257   0.967   0.508   0.309
    1.005   0.747   0.984   0.880   2.182
    0.854   1.372  -0.626   0.840   0.248
    1.758   0.105   1.285   1.175   0.567

    1.050   1.144
    1.100   0.247   1.066   1.481   1.133
    1.060   1.160   0.990   0.466   0.750
    0.908   1.099   1.144   0.929   1.727
    1.141   1.008  -0.322   1.077   0.203
    1.282   0.138   1.264   1.230   0.782

    1.100   1.022
    1.022   0.010   0.723   1.047   0.826
    0.862   1.052   1.516   0.902   0.982
    0.933   1.115   1.022   1.018   1.590
    0.781   1.142  -0.540   1.416   0.522
    1.519  -0.408   1.256   1.641   1.358

    1.150   0.865
    1.191  -0.289   1.381   1.065   1.005
    0.501   0.727   1.594   1.051   1.097
    0.679   1.364   0.865   0.787   1.532
    0.825   0.779  -0.617   1.607   1.040
    1.644  -0.267   1.522   1.717   1.481

    1.200   1.128
    1.526  -0.289   1.511   1.138   1.110
    0.567   0.837   1.089   1.232   1.198
    0.177   1.227   1.128   0.591   1.086
    0.614   0.835  -0.250   1.605   0.726
    1.924  -0.262   1.472   1.789   1.311

    1.250   1.012
    1.469  -0.207   1.299   1.289   0.569
    0.133   0.599   1.278   1.224   0.485
    0.324   1.197   1.012   0.696   1.098
    0.565   1.239   0.038   1.355   0.660
    1.762  -0.084   1.143   1.517   1.425

    1.300   1.160
    1.671   0.088   0.903   1.019   0.611
    0.561   0.584   1.067   1.097   0.349
    0.365   1.390   1.160   0.998   0.921
    0.291   1.257   0.175   1.356   0.571
    1.290   0.126   1.433   1.422   1.263

    1.350   0.692
    1.609  -0.044   1.466   0.821   0.654
    0.574   0.634   1.229   1.539   0.466
    0.247   0.907   0.692   1.222   0.835
    0.608   1.086   0.138   1.641   0.427
    1.186  -0.074   1.097   1.702   1.226

    1.400   0.755
    1.256  -0.132   1.844   0.479   0.693
    0.878   0.227   1.457   1.753   0.146
    0.221   0.876   0.755   0.866   0.946
    1.050   1.003   0.225   1.342   0.618
    1.250   0.140   1.153   1.528   0.952

    1.450   0.860
    1.054  -0.330   2.016   0.669   0.636
    1.305   0.538   1.419   1.958   0.527
    0.070   0.829   0.860   0.838   0.897
    1.079   1.405   0.137   1.109   0.577
    0.920   0.580   1.482   1.456   1.013

    1.500   0.977
    0.942  -0.147   2.018   0.548   0.315
    1.469   0.711   1.280   1.846   0.632
   -0.012   0.934   0.977   0.825   1.181
    1.009   0.850   0.488   1.011   0.928
    1.027   0.407   1.085   1.091   0.799

    1.550   1.444
    0.923   0.012   1.373   0.615   0.607
    1.380   0.676   0.851   1.830   0.506
   -0.117   1.162   1.444   0.614   1.360
    0.851   0.865   0.314   1.240   0.625
    1.183   0.467   1.081   0.829   1.215

    1.600   1.383
    1.137   0.152   1.243   0.270   0.860
    1.208   0.847   1.436   1.512   0.865
   -0.030   0.792   1.383   0.615   1.552
    0.531   0.862   0.288   1.457   0.925
    0.782   0.410   1.559   0.598   1.561

    1.650   1.338
    0.895   0.277   1.703   0.200   0.779
    1.166   0.898   1.440   1.567   0.960
    0.178   1.069   1.338   0.823   1.338
    0.423   1.281   0.333   1.009   1.227
    0.905   0.710   1.833   0.438   1.455

    1.700   1.140
    0.566   0.268   1.982  -0.023   0.334
    1.025   1.016   1.112   1.331   1.243
    0.123   1.264   1.140   1.011   1.347
    0.677   1.390   0.157   0.636   1.322
    0.704   1.215   1.837   0.475   1.234

    1.750   1.398
    0.691   0.404   2.181  -0.219   0.166
    1.009   1.206   0.987   1.706   1.063
   -0.215   1.087   1.398   0.953   1.189
    0.360   1.229   0.054   0.285   1.410
    1.246   1.315   1.752   0.449   1.519

    1.800   2.327
    0.894   0.631   2.195   0.104   0.316
    0.936   1.127   0.834   1.751   1.038
   -0.225   0.912   2.327   0.811   1.220
    0.346   0.920  -0.094   0.284   1.485
    1.346   1.052   1.650   0.201   1.370

    1.850   2.253
    0.501   0.715   1.958   0.261   0.536
    0.847   1.027   1.023   1.753   1.029
   -0.314   0.871   2.253   1.024   1.295
    0.779   0.852   0.146   0.276   1.191
    1.079   1.239   1.771   0.068   1.150

    1.900   2.134
    0.777   0.421   1.910   0.166   0.440
    0.697   1.230   1.059   2.007   0.988
    0.042   0.833   2.134   0.940   1.421
    0.507   0.763   0.041   0.556   1.111
    0.922   1.245   1.942   0.338   1.218

    1.950   1.815
    0.863   0.036   1.409   0.105   0.384
    0.307   1.166   1.287   1.756   0.570
   -0.406   1.067   1.815   1.025   1.412
    0.805   0.634   0.211   1.085   0.908
    0.964   1.222   1.725   0.415   0.783

    2.000   1.778
    0.561   0.067   1.209   0.366   0.742
    0.069   1.388   1.287   1.206   0.692
   -0.521   0.947   1.778   0.786   1.140
    0.924   0.592   0.203   1.018   1.348
    0.644   0.972   1.783   0.286   0.750

    2.050   1.734
    0.447   0.487   0.907   0.352   0.780
    0.452   1.470   1.074   1.195   0.617
   -0.576   0.649   1.734   0.749   1.061
    0.540   0.808   0.335   1.101   1.328
    0.417   0.622   1.518   0.116   1.260

    2.100   1.706
   -0.053   0.795   0.931  -0.013   0.543
    0.215   1.199   1.610   1.185   0.359
   -0.117   0.577   1.706   1.001   1.048
    0.784   0.911   0.391   1.837   1.174
    0.617   0.314   1.286   0.195   1.285

    2.150   1.375
   -0.014   1.183   1.180   0.326   0.754
    0.727   1.267   1.728   1.531   0.640
    0.135   0.573   1.375   0.938   0.944
    0.705   1.119   0.305   1.724   0.921
    0.495   0.138   1.495   0.076   1.656

    2.200   1.547
   -0.206   1.068   1.293   0.221   0.911
    0.595   1.259   1.861   1.433   1.057
    0.280   0.487   1.547   0.789   1.148
    0.522   1.136   0.724   2.063   1.062
    0.865   0.111   1.758   0.328   1.727

    2.250   1.685
   -0.155   0.448   1.299   0.447   0.279
    0.419   1.275   1.805   1.448   0.923
    0.598   0.692   1.685   0.596   1.316
    0.531   1.232   0.609   2.002   0.955
    0.708   0.061   1.778   0.344   1.757

    2.300   1.640
    0.113   0.837   1.492   0.427   0.205
    0.304   0.918   1.604   1.219   0.623
    0.448   0.544   1.640   0.400   1.248
    0.589   0.954   0.793   1.792   0.695
    0.642   0.201   2.046   0.331   1.919

    2.350   1.361
    0.011   1.130   1.582   0.867   0.087
    0.515   0.854   1.060   1.431   0.711
    0.754   0.765   1.361   0.080   1.262
    0.477   1.028   0.922   1.333   0.751
    0.971   0.027   2.090   0.221   2.004

    2.400   1.278
    0.237   0.662   1.455   0.785   0.088
    0.481   1.132   1.161   1.496   0.875
    0.330   0.922   1.278   0.377   1.238
    0.314   1.159   0.709   1.637   0.576
    0.912  -0.234   2.007   0.274   1.541

    2.450   1.616
    0.048   0.649   1.815   0.490   0.219
    0.322   0.990   1.372   1.425   0.802
    0.186   1.473   1.616   1.012   1.084
    0.535   1.220   0.734   1.025   0.821
    0.644  -0.148   2.108   0.237   1.046

    2.500   1.608
   -0.057   0.562   1.671   0.237  -0.117
    0.109   1.202   1.138   1.151   0.583
    0.365   1.368   1.608   1.341   1.266
    0.308   0.944   0.599   0.796   0.537
    0.190  -0.025   2.300   0.033   1.178

    2.550   1.579
    0.146   0.280   1.381   0.548  -0.166
    0.009   1.264   1.445   1.311   0.287
    0.621   1.060   1.579   0.866   1.174
    0.620   1.000   0.547   0.848   0.424
    0.080   0.169   2.095   0.232   1.172

    2.600   1.931
    0.249   0.436   1.535   0.487   0.207
    0.505   1.226   1.024   0.948   0.341
    0.802   0.946   1.931   0.838   1.323
    0.728   1.479   0.506   1.009   0.755
    0.458   0.011   1.940   0.613   1.193

    2.650   1.771
    0.271   0.472   1.628   0.335   0.103
    0.299   0.824   0.838   0.984   0.311
    0.768   0.329   1.771   1.011   1.506
    0.524   1.431   0.587   0.984   0.988
    0.906   0.286   2.240   0.500   1.061

    2.700   1.939
   -0.160   0.486   1.501   0.376   0.053
    0.264   0.949   1.087   0.938   0.276
    0.676   0.857   1.939   0.655   1.314
    0.843   1.164   0.545   1.380   1.038
    0.710   0.684   2.366   0.127   0.811

    2.750   1.829
    0.243   0.435   1.561   0.738  -0.015
    0.320   0.667   1.553   1.283   0.090
    0.539   0.699   1.829   0.635   0.855
    1.190   1.089   0.654   1.240   1.170
    0.388   0.524   2.490   0.187   0.658

    2.800   1.634
    0.306   0.490   1.323   1.002   0.034
    0.664   0.974   1.646   1.250   0.288
    0.265   0.847   1.634   0.807   0.630
    1.324   1.198   0.555   1.394   1.234
    0.265   0.568   2.512   0.757   0.944

    2.850   1.602
   -0.115   0.231   1.065   0.881   0.038
    0.457   1.168   1.231   1.039   0.328
    0.552   0.500   1.602   1.057   0.922
    1.211   0.746   0.638   1.283   1.359
    0.338   0.273   2.308   0.506   0.897

    2.900   1.446
   -0.213   0.639   1.074   1.010   0.066
    0.654   1.222   1.240   0.889   0.192
    0.382   0.402   1.446   1.114   0.719
    1.133   0.445   0.417   1.364   1.420
    0.112   0.880   2.279   0.661   0.693

    2.950   1.219
   -0.016   0.744   0.697   1.325   0.485
    1.129   1.205   1.010   0.924   0.208
    0.611   0.664   1.219   1.004   0.727
    1.103   0.590   0.537   1.513   1.878
    0.321   0.536   2.355   0.985   0.483

    3.000   1.182
   -0.309   0.755   0.663   1.178   0.649
    1.046   1.166   1.157   1.114  -0.034
    0.847   0.839   1.182   0.785   0.994
    0.966   0.528   0.705   1.268   1.550
    0.394   1.066   2.045   0.477   0.442

    3.050   1.015
   -0.408   0.858   0.908   1.254   0.726
    1.306   1.325   1.401   1.815   0.389
    0.943   1.087   1.015   0.775   1.031
    1.363   0.464   0.377   1.313   1.945
    0.322   0.998   1.601   0.666   0.604

    3.100   1.528
   -0.091   0.720   0.788   1.084   0.166
    1.038   1.208   1.264   1.392   0.604
    1.115   1.202   1.528   0.856   0.923
    1.490   0.246   0.641   1.670   1.864
    0.402   0.938   1.638   0.504   0.432

    3.150   1.613
   -0.342   0.980   0.763   1.035   0.183
    0.744   1.303   1.161   1.302   0.909
    1.290   0.958   1.613   0.900   1.472
    1.385  -0.005   0.799   1.301   2.115
    0.116   1.150   1.678   0.408   0.358

    3.200   1.448
   -0.423   0.677   0.424   0.905   0.518
    0.919   1.291   1.037   1.429   0.914
    1.163   0.717   1.448   1.583   1.633
    1.318   0.105   0.855   0.958   2.054
    0.289   1.325   1.748   0.206   0.036

    3.250   1.464
   -0.793   0.622   0.477   0.372   0.619
    1.036   1.111   1.165   1.044   0.984
    1.392   0.573   1.464   1.275   1.262
    1.432   0.625   0.815   1.045   2.236
    0.136   1.273   1.384   0.144  -0.043

    3.300   1.340
   -0.793   0.750   0.075   0.282   0.528
    1.297   1.312   1.312   0.830   0.661
    1.450   0.709   1.340   1.392   1.435
    1.811   0.678   0.425   0.927   1.923
    0.165   1.204   1.404   0.028  -0.020

    3.350   1.285
   -0.780   1.109   0.091   0.150   0.468
    1.591   1.399   0.804   1.044   0.404
    1.551   0.634   1.285   1.653   1.499
    1.644   0.490   0.580   0.809   2.049
   -0.039   0.634   1.474  -0.013  -0.141

    3.400   1.596
   -0.476   0.531  -0.118   0.027   0.462
    1.774   1.295   0.872   1.350   0.301
    1.397   0.913   1.596   1.647   1.212
    1.680   0.633   0.564   0.910   2.194
    0.062   0.847   1.020  -0.378  -0.327

    3.450   1.406
   -0.044   0.790   0.283   0.235   0.331
    1.860   0.972   0.626   1.183   0.158
    1.669   1.283   1.406   1.840   0.712
    1.816   0.160   0.693   0.568   2.063
    0.028   1.027   1.528  -0.183  -0.258

    3.500   1.375
    0.004   0.577  -0.029   0.079   0.577
    1.779   1.040   0.782   0.858   0.262
    1.882   0.973   1.375   1.797   0.356
    2.113   0.089   0.685   0.380   2.000
   -0.209   0.802   1.353   0.251   0.204

    3.550   1.571
   -0.345   0.498   0.127   0.366   0.696
    1.653   0.429   1.274   0.792   0.045
    1.603   0.966   1.571   1.345   0.326
    2.222   0.105   0.958   0.951   2.046
   -0.412   0.844   1.354   0.497   0.262

    3.600   1.295
   -0.046   0.689   0.433   0.435   0.757
    0.886   0.445   1.334   0.661   0.209
    1.451   1.085   1.295   1.027   0.492
    2.142  -0.186   0.956   1.166   2.159
   -0.209   1.042   1.321  -0.040   0.394

    3.650   1.016
    0.392   0.666   0.383   0.501   0.515
    0.637   0.557   1.815   0.943   0.657
    1.265   1.008   1.016   1.338   0.071
    2.180  -0.122   0.633   0.611   2.204
    0.018   1.219   1.169  -0.001   0.272

    3.700   0.950
    0.283   0.837   0.586   0.280   0.202
    0.730   0.875   1.641   1.058   0.197
    1.627   1.033   0.950   1.042   0.391
    2.001  -0.015   0.604   0.443   2.187
   -0.181   1.374   0.890   0.339   0.182

    3.750   1.053
    0.511   1.322   0.705   0.085   0.448
    0.803   0.772   1.817   1.083  -0.025
    1.568   1.553   1.053   1.003   0.000
    1.604  -0.163   0.703   0.375   1.915
   -0.052   1.553   0.982   0.342   0.360

    3.800   1.164
    0.480   1.232   0.531   0.321   0.389
    1.474   0.481   1.665   0.908   0.169
    1.412   0.726   1.164   0.861  -0.161
    2.077  -0.491   0.563   0.929   1.536
   -0.016   1.624   1.206   0.924   0.093

    3.850   1.623
    0.111   1.295   0.113   0.474   0.484
    1.313   0.640   1.517   0.702   0.589
    1.215   1.182   1.623   1.084  -0.247
    1.949  -0.708   0.774   0.607   1.873
    0.097   1.814   0.921   0.675   0.025

    3.900   1.692
    0.045   1.525  -0.252   0.357   0.624
    1.633   0.216   1.672   1.106   0.592
    1.077   1.219   1.692   1.441  -0.263
    1.451  -0.482   1.194   1.068   1.934
    0.001   1.645   0.823   0.216   0.167

    3.950   1.723
    0.068   1.471   0.259   0.181   0.355
    1.872  -0.014   1.776   1.333   0.866
    1.508   1.151   1.723   1.244  -0.256
    1.634  -0.512   1.439   1.263   1.863
    0.234   1.587   0.887   0.479  -0.109

    4.000   1.548
   -0.434   1.264   0.527   0.537   0.013
    1.533   0.247   1.862   1.481   0.809
    1.585   1.411   1.548   1.180  -0.158
    1.257  -0.400   1.246   1.749   1.808
    0.506   1.614   1.013   0.183  -0.042

    4.050   1.282
   -0.218   1.017   0.598   0.625   0.461
    1.363   0.087   1.501   1.366   0.696
    1.678   1.775   1.282   1.116   0.158
    0.778  -0.629   1.444   1.548   1.848
    0.374   1.287   0.902  -0.089   0.292

    4.100   1.164
   -0.469   1.246   0.559   0.356   0.296
    0.735   0.250   1.145   1.167   0.948
    1.449   1.925   1.164   1.024   0.216
    0.594  -0.384   1.427   1.537   1.867
    0.764   1.179   1.059   0.125   0.003

    4.150   0.939
   -0.661   1.408   0.475   0.365   0.425
    0.761   0.287   0.916   0.927   0.681
    0.972   1.863   0.939   0.713  -0.012
    0.432  -0.470   1.220   1.735   1.361
    0.798   0.993   1.111   0.166  -0.185

    4.200   0.796
   -0.454   1.429   0.349   0.261   0.271
    1.013   0.156   0.733   0.781   0.827
    1.185   1.731   0.796   1.156   0.049
    0.538  -0.328   1.102   1.599   1.050
    0.899   1.278   1.002   0.150  -0.332

    4.250   0.884
   -0.412   0.960   0.625   0.376   0.227
    1.008   0.611   0.687   0.878   1.139
    1.299   1.784   0.884   1.253   0.277
    0.325  -0.253   1.126   1.827   1.151
    0.817   0.906   0.713   0.625  -0.853

    4.300   0.954
   -0.582   1.181   0.602   0.599   0.177
    1.023   0.469   0.695   0.987   1.226
    1.136   1.596   0.954   1.175   0.044
    0.599  -0.067   1.237   1.576   0.878
    0.920   0.579   0.451   0.201  -1.110

    4.350   1.007
   -0.796   1.441   0.749   0.945   0.415
    1.059   0.565   0.610   0.930   1.204
    0.704   1.633   1.007   1.282   0.207
    0.908   0.269   1.229   1.856   1.067
    0.982   0.733   0.551   0.225  -0.759

    4.400   1.029
   -1.008   1.607   0.959   0.978   0.220
    1.337   0.733   0.581   0.922   1.451
    0.681   1.038   1.029   1.619   0.311
    0.852   0.237   1.409   1.780   1.222
    0.708   0.920   0.597   0.544  -0.481

    4.450   1.224
   -0.638   1.456   0.739   0.668   0.185
    1.413   0.744   1.019   1.116   1.375
    0.643   1.170   1.224   1.539   0.351
    0.915   0.326   1.214   1.311   1.275
    0.937   0.816   0.988   0.396  -0.326

    4.500   1.364
   -0.444   1.457   0.633   0.476   0.294
    1.075   0.644   0.964   0.930   0.753
    0.149   0.966   1.364   1.379   0.513
    0.854   0.262   1.087   1.408   0.818
    1.089   0.264   0.931   0.431   0.065

    4.550   1.274
   -0.560   1.697   0.753   0.578   0.351
    1.274   0.175   0.734   1.261   0.587
    0.416   0.765   1.274   1.192   0.262
    1.107   0.160   1.271   1.802   1.088
    1.071   0.584   0.711   0.438  -0.118

    4.600   1.162
   -0.180   1.546   0.839   0.280   1.113
    1.250  -0.006   0.689   0.964   0.498
    0.295   1.040   1.162   0.876   0.133
    1.250   0.084   0.984   1.955   1.301
    1.371   1.096   0.550   0.915   0.159

    4.650   1.251
   -0.730   1.646   0.357   0.088   1.098
    0.856  -0.107   0.637   1.085   0.543
    0.037   1.265   1.251   0.839  -0.220
    1.457   0.154   0.735   2.250   0.858
    1.466   0.783   0.524   0.565   0.173

    4.700   1.112
   -0.519   2.064   0.329   0.218   0.799
    0.855  -0.072   0.659   1.240   0.674
    0.493   1.171   1.112   0.842  -0.092
    1.326   0.405   0.818   2.313   0.826
    1.612   0.960   0.392   0.611   0.129

    4.750   1.167
   -0.463   2.181   0.283   0.357   0.858
    0.713  -0.179   0.821   1.214   0.707
    0.562   0.687   1.167   1.440   0.201
    0.841   0.147   0.771   1.944   1.270
    1.494   0.827   0.083   0.563  -0.038

    4.800   1.198
   -0.396   1.615   0.365   0.101   0.887
    1.031  -0.252   0.885   0.990   0.837
    0.619   0.696   1.198   1.453   0.791
    0.612  -0.163   0.429   1.940   0.994
    1.283   1.114   0.293   0.979   0.013

    4.850   1.190
   -0.483   1.715   0.642   0.442   1.002
    1.076  -0.007   0.986   0.880   1.185
    0.482   1.014   1.190   1.708   0.717
    0.623   0.293   0.874   2.025   0.863
    1.214   1.149   0.050   1.316   0.205

    4.900   1.246
   -0.606   1.717   0.982   1.133   0.743
    0.864  -0.229   1.194   1.136   1.362
    0.287   1.698   1.246   1.433   0.663
    0.761   0.209   1.201   1.729   1.311
    1.192   1.092  -0.437   1.060   0.228

    4.950   1.166
   -0.577   1.801   0.697   0.894   0.721
    0.764  -0.320   1.375   1.219   1.464
    0.144   1.427   1.166   1.426   0.939
    0.584   0.360   1.857   1.727   1.478
    0.911   1.078  -0.140   1.138   0.354

    5.000   1.063
   -0.552   1.389   0.685   0.504   0.807
    0.709  -0.478   1.218   1.193   1.447
    0.121   1.381   1.063   1.341   0.919
    0.421   0.612   1.466   1.558   1.237
    1.387   0.789   0.228   1.181   0.231

    5.050   0.932
   -0.470   1.039   0.892   0.550   1.208
    0.490  -0.498   1.134   1.506   0.883
    0.053   1.436   0.932   1.619   0.726
    0.546   0.337   1.381   1.787   1.151
    1.620   0.601  -0.252   1.065   0.103

    5.100   0.895
   -0.568   1.128   1.297   0.345   1.339
    0.454  -0.414   1.377   1.269   1.062
   -0.183   1.288   0.895   1.747   0.928
    0.560   0.241   1.288   1.630   0.482
    1.859   0.478  -0.198   1.101   0.150

    5.150   0.925
   -0.684   1.286   1.341  -0.074   1.231
    0.751  -0.653   0.996   1.161   1.165
   -0.177   1.132   0.925   1.664   0.902
    0.657  -0.037   1.501   1.543   0.609
    1.821   0.368  -0.340   0.732  -0.019

    5.200   1.250
   -0.892   1.142   1.283   0.122   1.124
    0.766  -0.424   0.654   1.424   0.874
   -0.099   1.521   1.250   1.772   1.158
    0.430   0.191   1.646   1.353   0.663
    1.658   0.645  -0.158   0.663   0.203

    5.250   1.421
   -0.857   0.947   1.313   0.077   1.159
    0.437  -0.627   0.808   1.632   0.612
   -0.486   1.373   1.421   1.410   1.163
    0.194   0.671   1.634   1.188   0.880
    1.945   0.895   0.027   0.624  -0.047

    5.300   1.278
   -0.957   1.054   1.275  -0.164   0.707
    0.667  -0.733   0.786   1.288   0.250
   -0.459   0.871   1.278   1.158   1.166
    0.263   0.881   1.356   1.423   1.080
    1.884   0.891   0.063   0.621   0.157

    5.350   1.098
   -1.062   1.004   1.039  -0.242   1.076
    0.791  -0.618   0.670   1.268   0.189
    0.065   0.564   1.098   1.345   1.140
    0.341   0.694   1.251   1.562   0.720
    1.807   0.667   0.313   0.303   0.419

    5.400   1.126
   -0.819   1.050   1.113   0.154   0.716
    1.052  -0.672   0.523   1.315   0.360
    0.509   1.168   1.126   1.831   0.990
    0.256   0.885   1.266   1.450   0.761
    1.725   0.145   0.263   0.432   0.410

    5.450   1.349
   -0.859   0.762   1.077   0.359   0.383
    0.878  -0.742   1.069   1.143   0.339
    0.526   1.155   1.349   1.666   1.031
    0.573   0.490   1.539   1.565   0.661
    1.846  -0.063   0.041   0.303   0.547

    5.500   1.175
   -0.471   0.815   1.296   0.546   0.706
    0.593  -0.943   0.704   0.872   0.625
    0.547   0.951   1.175   1.632   1.023
    0.299   0.230   1.121   1.110   0.877
    1.455  -0.168  -0.002   0.624   0.893

    5.550   1.134
   -0.543   0.567   1.429   0.782   0.861
    0.928  -0.871   0.565   1.049   0.795
    0.687   0.553   1.134   1.426   1.132
    0.020   0.368   0.689   0.986   1.400
    1.722  -0.065   0.542   0.434   0.699

    5.600   1.284
   -1.187   0.770   1.574   0.543   0.622
    0.861  -0.894   0.960   1.155   0.899
    1.141   0.623   1.284   1.563   0.872
   -0.289   0.547   0.993   1.237   1.551
    1.884   0.012   0.579   0.293   0.971

    5.650   1.327
   -1.029   0.697   1.172   0.619   0.395
    0.846  -0.461   0.799   1.314   0.528
    0.938   0.867   1.327   1.558   0.899
   -0.283   0.038   1.126   1.473   1.844
    1.456  -0.375   0.679   0.024   0.728

    5.700   1.138
   -0.689   0.727   1.652   0.648   0.487
    1.338  -0.559   0.557   1.434   0.641
    0.956   1.177   1.138   1.800   1.436
    0.231   0.030   1.111   1.625   1.961
    1.195  -0.092   0.370   0.120   0.369

    5.750   1.138
    0.133   0.425   1.451   0.685   0.807
    1.538  -0.978   0.649   1.068   1.187
    0.979   0.948   1.138   1.989   1.400
   -0.067  -0.185   0.614   1.352   1.770
    0.800   0.256   0.224   0.110   0.280

    5.800   0.779
   -0.087   0.437   1.793   0.203   1.052
    1.500  -0.608   1.182   0.795   0.887
    1.690   1.044   0.779   1.890   1.479
   -0.126   0.355   0.411   1.368   1.760
    0.789   0.550   0.614   0.311   0.583

    5.850   0.957
    0.033   0.458   1.518   0.268   0.566
    1.373  -1.132   1.665   0.637   1.014
    2.020   1.224   0.957   1.568   1.310
    0.429   0.331   0.239   1.537   1.567
    0.571   0.581   0.843   0.081   0.621

    5.900   0.900
    0.122   0.545   1.372   0.037   0.750
    1.542  -0.858   1.553   0.886   1.030
    1.333   1.417   0.900   1.368   1.477
    0.748   0.314   0.410   1.591   1.819
    0.133   0.833   0.766   0.037   0.541

    5.950   0.857
   -0.122   0.274   2.042  -0.135   0.955
    1.703  -0.454   1.594   0.924   1.201
    1.252   1.375   0.857   1.292   1.706
    0.753   0.346   0.453   1.733   1.687
    0.187   0.932   0.436   0.151   0.524

    6.000   1.120
   -0.744   0.333   2.209   0.039   0.805
    1.778  -0.599   1.470   1.055   1.081
    1.588   1.405   1.120   1.250   1.541
    1.035   0.316   0.606   1.582   1.702
    0.336   1.100   0.497   0.264   0.555

    6.050   1.066
   -0.769   0.360   1.903  -0.003   1.023
    1.544  -0.797   1.481   0.867   1.131
    1.661   1.102   1.066   1.105   1.770
    1.128   0.757   0.969   1.265   1.960
    0.429   1.111   0.690   0.568   0.588

    6.100   1.225
   -0.652   0.287   2.065  -0.647   1.450
    1.226  -0.971   1.004   0.603   1.125
    1.346   0.910   1.225   0.982   1.880
    0.853   0.997   1.459   1.405   1.814
    0.697   0.987   0.240   0.396   0.280

    6.150   1.590
   -0.875   0.299   2.021  -0.591   1.308
    1.430  -0.898   0.884   0.252   0.737
    1.092   1.061   1.590   1.434   1.610
    0.380   0.837   1.429   1.257   2.196
    0.773   1.061   0.221   0.754   0.037

    6.200   1.747
   -1.240   0.501   2.318  -0.169   1.210
    1.332  -0.956   0.770   0.870   0.663
    0.774   1.210   1.747   1.278   1.753
   -0.125   0.783   1.521   1.720   1.593
    0.782   1.230   0.059   0.778   0.452

    6.250   1.516
   -1.227   0.477   2.327   0.048   1.501