--------------TurbSim v2.00.* User Time Series Input File-----------------------
Time series input from Y:/wind/windweb/MetData/135mData/M4Twr/20Hz/mat/2014/01/13/01134_16_40_00_013.mat. Using rotated series
--------------------------------------------------------------------------------
          3  nComp    - Number of velocity components in the file (1=u component only; 2=u & v components; 3=u,v,w) [if < 3 other components will be generated using values from input file]
          5  nPoints  - Number of time series points contained in this file (-)
          4  RefPtID  - Index of the reference point (1-nPoints)
Pointyi     Pointzi    ! listed in order of increasing height
  (m)         (m)
    0.00000    15.00000
    0.00000    30.00000
    0.00000    50.00000
    0.00000    76.00000
    0.00000   102.00000  !    0.00000   131.00000
--------Time Series-------------------------------------------------------------
 Elapsed Time     Point01u_015m Point01v_015m Point01w_015m Point02u_030m Point02v_030m Point02w_030m Point03u_050m Point03v_050m Point03w_050m Point04u_076m Point04v_076m Point04w_076m Point05u_100m Point05v_100m Point05w_100m Point06u_131m Point06v_131m Point06w_131m
          (s)         (m/s)         (m/s)         (m/s)         (m/s)         (m/s)         (m/s)         (m/s)         (m/s)         (m/s)         (m/s)         (m/s)         (m/s)         (m/s)         (m/s)         (m/s)         (m/s)         (m/s)         (m/s)
       0.0000       10.0239       -6.5673        0.1700       10.7104       -4.3265       -0.2657        7.5121       -5.5683        0.7229        8.5538        1.8554        2.7886        7.0625       -2.1336       -0.2311           NaN           NaN           NaN
       0.0500        9.8543       -6.6871        0.2014       10.5539       -4.5656       -0.1635        8.2209       -5.4902        0.7691        8.9743        2.5509        3.3407        7.7085       -2.3617       -0.6188           NaN           NaN           NaN
       0.1000        9.6866       -6.9837       -0.0274       10.6105       -4.1738       -0.1907        8.3543       -5.4594        0.8359        8.6827        2.7908        3.1656        7.8472       -2.9253       -0.6418           NaN           NaN           NaN
       0.1500        9.7324       -7.0552       -0.0051       10.6691       -4.4155       -0.0675        8.1870       -5.3004        0.9976        8.4674        2.6578        2.9444        7.7456       -2.1933       -0.0762           NaN           NaN           NaN
       0.2000       10.6893       -6.8507       -0.9577       10.3897       -4.9771        0.2487        8.0996       -5.2680        1.9644        8.9458        3.0094        1.8673        7.6701       -2.2987        0.2604           NaN           NaN           NaN
       0.2500        9.9231       -7.3007        0.7656       10.4993       -4.6568        0.1041        7.3927       -5.6227        1.8984        8.9012        2.8845        1.6848        7.3964       -2.1423        0.5068           NaN           NaN           NaN
       0.3000       10.6087       -7.4602        1.1109       10.6404       -4.6216        0.4016        7.8551       -5.8079        1.7017        7.8978        2.7014        1.8440        7.5993       -2.1448        0.7674           NaN           NaN           NaN
       0.3500       10.7004       -6.5530        1.5361       10.6060       -5.0307        0.2697        8.0539       -5.2520        1.5816        7.5469        2.3478        2.0364        7.5398       -2.6146        1.1950           NaN           NaN           NaN
       0.4000       10.6239       -6.5870        0.9715       10.2804       -5.5762        0.2131        9.0905       -5.1252        1.2239        7.1627        2.1428        2.4274        7.6807       -2.6597        1.6527           NaN           NaN           NaN
       0.4500       10.3173       -6.9557        0.7657        9.7826       -5.9725        0.4581        9.4540       -4.3138        1.3725        7.9526        2.5129        2.2073        7.9318       -2.2922        1.9459           NaN           NaN           NaN
       0.5000       10.1416       -7.2209        0.7567       10.0303       -4.9716        0.6309        9.8407       -3.7520        0.7614        8.4600        2.4350        0.6511        7.1259       -2.6972        1.2240           NaN           NaN           NaN
       0.5500       10.5047       -6.7512        0.6150        9.2657       -4.9317        0.3516       10.2811       -3.3267       -0.2976        9.9670        1.6305        1.0282        8.6704       -2.5493        1.6831           NaN           NaN           NaN
       0.6000       10.7474       -6.2916        1.0679        9.8545       -4.6793        0.9724        9.2865       -3.1312       -0.3782        8.8298        1.9777        2.6725        8.5316       -2.3025        0.8950           NaN           NaN           NaN
       0.6500       10.0867       -7.4206        0.5036        9.7205       -4.9432        1.1458        9.9069       -2.8483        0.4944        7.9273        2.2319        2.3362        8.2093       -3.3990        0.9988           NaN           NaN           NaN
       0.7000        9.8459       -7.4542       -1.2710        8.9698       -4.7850        1.0775        9.6954       -2.6462       -0.0771        8.6383        2.1842        2.0920        8.2936       -3.7892        1.0731           NaN           NaN           NaN
       0.7500        9.6427       -7.2455       -1.4315        9.3917       -4.6785        1.1891        9.1673       -2.7193        0.3366        8.9427        2.3911        1.6469        8.2266       -3.3263        0.7393           NaN           NaN           NaN
       0.8000        9.5695       -7.7153       -0.7343        9.5739       -4.4328        1.1584        9.0573       -2.6535        0.1908        8.3292        2.2472        2.0362        7.8194       -3.7072        0.5483           NaN           NaN           NaN
       0.8500       10.2921       -6.9918       -0.9979        9.6578       -4.3620        1.2127        8.9479       -3.1538        0.7260        8.3102        2.6701        1.7449        7.8589       -3.7135        1.0110           NaN           NaN           NaN
       0.9000        9.8191       -6.6210        0.3998        9.8743       -4.2941        1.0936        9.6018       -2.5313        1.0496        8.2451        2.9574        2.1521        8.2243       -3.4065        0.9394           NaN           NaN           NaN
       0.9500       10.0563       -6.9999        0.2417       10.3157       -4.2559        1.1260        8.5548       -1.6788        0.2954        9.0907        3.7919        2.0049        7.9246       -3.4823        1.1144           NaN           NaN           NaN
       1.0000        9.2220       -5.9308        0.8000        9.9854       -4.1755        1.2094        8.5202       -2.2213        0.1535        9.0511        3.9090        2.2632        7.8068       -3.8460        1.2086           NaN           NaN           NaN
       1.0500       10.0784       -5.5374        2.1954        9.5217       -4.6836        0.8753        7.3394       -3.3442        0.5039        9.6810        2.8990        2.8360        7.9015       -3.3869        0.9430           NaN           NaN           NaN
       1.1000        9.5813       -5.8415        2.4204       10.2011       -4.7455        0.9099        8.3667       -3.6501        1.0368        9.2322        2.6666        3.0034        8.0554       -4.2803        0.4702           NaN           NaN           NaN
       1.1500       10.1393       -5.7391        1.2873        9.5294       -5.2682        0.6955        8.8540       -3.1497        1.1417        9.4119        3.0706        2.5219        7.4228       -4.3461        0.8886           NaN           NaN           NaN
       1.2000       10.3018       -6.1910        0.7048        9.3079       -5.5758        0.5641        8.2826       -3.4260       -0.1190        8.6405        4.2058        1.3511        7.4680       -3.3188        1.0912           NaN           NaN           NaN
       1.2500       10.4492       -6.5951        1.0127        9.5492       -6.0838        0.6965        9.3215       -3.4758        1.0654        8.4973        4.2717        1.8545        6.9824       -3.1717        1.1065           NaN           NaN           NaN
       1.3000        9.7664       -7.2437        0.7676        9.8434       -6.0361        1.7628        9.8312       -4.2205        1.2115       10.6266        4.3021        2.0330        6.5258       -3.8663        0.4524           NaN           NaN           NaN
       1.3500        8.8919       -7.6760       -0.0979       10.1855       -5.7703        2.1307       10.8853       -4.1283        1.0649       10.8756        4.4807        1.9956        6.9195       -3.3237        1.6040           NaN           NaN           NaN
       1.4000        8.5238       -7.3008       -0.3770       10.8332       -4.6349        1.7131       12.1108       -4.8969        1.1674       10.6947        3.9128        1.6159        8.4642       -2.8396        0.9717           NaN           NaN           NaN
       1.4500        8.8623       -7.0775       -0.9606       11.0740       -3.6287        1.5952       11.4015       -5.6323        1.0211       10.5890        3.2867        1.8309        9.5736       -0.5216        0.7578           NaN           NaN           NaN
       1.5000        8.9728       -7.6597       -1.1552       10.7549       -4.2620        1.7992       10.7991       -5.3671        2.0018        9.5452        2.8431        1.5174       10.6925       -0.3945        0.5945           NaN           NaN           NaN
       1.5500        8.8930       -7.7153       -1.7600       10.7559       -5.3923        1.5490       10.0907       -5.4767        1.8856       10.2371        3.6055        1.6828       10.8529       -0.9786        1.0433           NaN           NaN           NaN
       1.6000        8.1438       -7.3152       -1.3176       11.2665       -5.4384        1.8053       10.3574       -5.0149        2.0594        9.6361        3.1687        1.3117       10.7002       -0.6667        0.8452           NaN           NaN           NaN
       1.6500        8.1903       -6.4505       -1.0248       11.5024       -5.7717        2.0776       11.9254       -4.4893        2.8001        9.9311        2.9386        1.3768       10.7060       -0.7470        0.8856           NaN           NaN           NaN
       1.7000        9.0474       -6.7787       -0.8811       11.3869       -6.0596        1.5911       12.0853       -4.2717        4.3402        9.8545        2.1151        1.6933       10.7079       -0.8640        1.3663           NaN           NaN           NaN
       1.7500       10.0716       -8.2431       -1.1994       11.3583       -6.2625        1.4395       11.0410       -4.7577        3.0154        9.6239        2.1524        1.4212       10.3019       -0.8535        0.4244           NaN           NaN           NaN
       1.8000       10.3520       -8.2542       -1.4154       10.8857       -6.4505        1.4755       12.1790       -6.3834        3.3937       10.0146        2.5972        1.2509        9.5056       -0.0165       -0.3471           NaN           NaN           NaN
       1.8500       10.2673       -8.4203       -0.8290       11.2969       -5.1986        1.5565       11.6385       -6.3633        3.2360        9.8851        2.9320        1.7049        9.8463        0.3261       -1.3010           NaN           NaN           NaN
       1.9000        9.9709       -8.1295       -0.9342       11.0247       -5.4012        1.7529        9.7081       -6.9237        2.1064        9.9010        2.3647        1.0849       10.2883       -0.1628       -0.7578           NaN           NaN           NaN
       1.9500        9.5836       -7.5340       -0.4032       11.1866       -6.0114        1.6810        9.7360       -7.2981        0.1954       10.0995        1.7221        1.0449       10.7854       -1.2740       -0.1517           NaN           NaN           NaN
       2.0000        9.5896       -7.2660        0.5083       11.2579       -6.3094        2.0051       11.3014       -5.7867        0.2450        9.9340        1.9320        1.1467       11.1319       -1.6288       -0.3444           NaN           NaN           NaN
       2.0500        9.3882       -6.8663        0.8786       11.3524       -6.3428        1.7095       11.2813       -6.4390       -1.7085        9.5712        2.6001        1.2784       11.2306       -1.7141        0.1113           NaN           NaN           NaN
       2.1000        8.7823       -6.7390        1.5286       10.9909       -6.1085        1.5209       11.4142       -6.7184       -1.8720        9.4923        2.8418        1.5547       11.2806       -1.3214       -0.5971           NaN           NaN           NaN
       2.1500        8.9461       -6.7526        1.5970       11.3461       -6.2745        1.5290       13.2924       -4.9391       -0.6849        9.5288        3.3245        0.9158       10.8063       -1.1277       -1.2120           NaN           NaN           NaN
       2.2000        8.9624       -6.6657        1.6980       11.1410       -6.3087        1.6787       13.4706       -5.0622       -0.6158       10.1418        1.8111        0.8268       11.1688       -0.9472        1.1495           NaN           NaN           NaN
       2.2500        8.8499       -6.0401        2.1428       11.4928       -5.4539        2.2674       12.8181       -4.6727       -1.2197       10.2068        1.6660        1.2006       11.4231        0.4246        1.3627           NaN           NaN           NaN
       2.3000        9.1016       -5.9852        1.9954       11.3350       -5.4306        2.0391       12.0135       -5.0135       -0.8402       11.1153        1.2957        1.1267       10.9777        0.8571        1.3400           NaN           NaN           NaN
       2.3500        9.1675       -5.7344        2.0088       11.4377       -5.2459        1.8240       11.4657       -6.7320        0.4036       10.6081        1.8950        0.7705       11.2355        0.5694        1.5834           NaN           NaN           NaN
       2.4000        9.7174       -5.8032        2.1970       11.4575       -4.9596        1.3744       11.1242       -7.2807        1.2774       10.4426        1.4595        0.9122       10.7997        1.0594        1.9217           NaN           NaN           NaN
       2.4500       10.4033       -5.6124        1.7914       11.2659       -4.3116        0.8540       10.6852       -6.9542        2.6067       10.8977        1.7570        0.9354       10.8549        1.1390        3.3063           NaN           NaN           NaN
       2.5000       10.3088       -5.3229        2.9681       10.5028       -4.7283        0.9553       10.0484       -7.6818        2.6144       10.7303        1.6394        1.1171       10.9869        1.2013        3.4632           NaN           NaN           NaN
       2.5500       10.1201       -6.1533        3.0986       11.9245       -5.3011       -0.0336        9.7243       -7.3422        2.8382       10.0908        1.2491        1.0946       11.1212        0.9467        2.7591           NaN           NaN           NaN
       2.6000       10.1385       -7.3216        1.8680       12.9238       -4.6482        0.6280       10.1208       -7.7064        3.5192       10.1472        0.9184        0.6469       10.7854        0.6560        2.7821           NaN           NaN           NaN
       2.6500       10.5909       -6.4155        2.2715       12.5116       -4.4250        0.4769       10.6956       -7.9769        3.5084        9.7753        0.8185        0.1273        9.5897        0.1882        3.3420           NaN           NaN           NaN
       2.7000       10.9701       -5.8936        2.7915       11.7360       -4.1497        0.3773       11.4990       -8.1697        3.0988       10.1387        0.4952       -0.3348        9.9000        0.8184        3.9285           NaN           NaN           NaN
       2.7500       11.5544       -5.8388        2.3606       11.4798       -3.4747        0.8048       11.7824       -7.4965        2.6125        9.5264        0.7418        0.1146        9.1978        0.7844        1.3395           NaN           NaN           NaN
       2.8000       12.2961       -5.1943        2.8790       11.3187       -2.5413        0.4362       12.3656       -5.2699        3.8638        9.3755        1.0169        0.2471       11.6304        0.1747        1.4233           NaN           NaN           NaN
       2.8500       11.4894       -4.7217        2.7178       12.4305       -2.9001        0.9534       12.4232       -3.9367        3.6765        8.6614        1.2902        0.5612       11.7252       -0.0334        1.0877           NaN           NaN           NaN
       2.9000       11.7287       -4.6570        2.7700       12.4226       -3.7950        0.8428       12.3028       -3.7321        3.3199        9.0979        1.5789        0.1829       11.2139       -0.1801        1.9027           NaN           NaN           NaN
       2.9500       11.5348       -4.1868        2.8803       12.0687       -2.7918        0.5244       12.2992       -3.4196        3.8204       10.1745        2.2167       -0.2029       10.7623       -0.7640        1.8697           NaN           NaN           NaN
       3.0000       12.4489       -4.1711        2.3962       11.8716       -1.1665        0.4142       12.1106       -2.9300        3.7407       10.2979        2.6836        0.5444       10.2402       -1.3154        2.4739           NaN           NaN           NaN
       3.0500       12.3219       -3.5663        2.2095       11.7549       -1.9446        0.1079       11.8384       -3.0306        3.8870        9.7813        3.3902       -0.1027       10.4666       -1.4004        2.2351           NaN           NaN           NaN
       3.1000       11.7928       -3.7989        2.1425       11.7124       -2.2680       -0.4450       11.3531       -3.2057        3.5119       10.2649        3.0858       -0.3885       10.5549       -1.1050        3.0207           NaN           NaN           NaN
       3.1500       11.5766       -4.0697        1.5407       12.6652       -2.6806       -0.5967       11.1756       -3.5328        2.6017       10.3660        2.7943       -0.0730       10.9527       -1.3346        4.6930           NaN           NaN           NaN
       3.2000       11.9795       -3.3245        1.4110       12.7969       -2.1790       -0.5700       11.5577       -4.7453        2.8915       10.0363        2.6784       -0.1398       10.6311       -1.5818        4.6466           NaN           NaN           NaN
       3.2500       11.4859       -3.2164        1.7564       13.0082       -2.0894       -0.4791       11.3882       -5.1493        3.1732       10.1834        2.1679       -0.1624       10.4969       -1.6484        4.1492           NaN           NaN           NaN
       3.3000       11.2132       -2.1043        2.1830       12.7182       -2.2183       -0.6641       10.6150       -4.1635        3.3041       11.2115        2.0549       -0.7008       10.5995       -1.4962        4.6851           NaN           NaN           NaN
       3.3500       11.8483       -3.4823        0.0526       12.7341       -2.4169       -1.3041       11.1666       -3.9287        3.1219       10.1898        2.6031        1.0095       10.4518       -1.7601        5.1281           NaN           NaN           NaN
       3.4000       12.2636       -1.4712        0.1138       13.0582       -2.3855       -1.3577       11.4153       -3.3432        3.7053        9.2953        2.5820        1.5347       10.4109       -1.6509        3.8344           NaN           NaN           NaN
       3.4500       12.3905       -1.9948       -0.6608       12.3849       -1.7780       -1.3119       10.7633       -2.8961        3.6421        8.6021        2.0105        1.9600       10.7409       -1.3518        2.8799           NaN           NaN           NaN
       3.5000       11.8822       -1.8543       -0.7768       12.0392       -1.8018       -1.0692       11.2176       -2.1235        3.9956        8.9518        2.4628        2.3583       10.6040       -1.6264        3.9644           NaN           NaN           NaN
       3.5500       11.6671       -2.5968       -0.5174       11.4952       -1.5659       -1.1069       11.4750       -2.7649        3.7985        8.4383        2.5111        2.3522       10.7057       -1.7703        4.6204           NaN           NaN           NaN
       3.6000       11.3570       -3.0077        0.1377       11.0814       -0.7168       -1.1780       11.7411       -3.8216        3.8621        9.1052        2.4275        2.5263       11.4771       -1.8190        3.9988           NaN           NaN           NaN
       3.6500       10.9101       -3.1749        0.5856       11.1435       -1.8024       -1.4152       11.6779       -4.1548        3.7587        8.1949        1.7035        2.8504       11.8012       -1.8754        4.3357           NaN           NaN           NaN
       3.7000       11.0449       -3.3871        0.8928       12.0070       -3.0233       -1.4713       11.1873       -3.9904        3.5936        7.7498        1.6014        3.5787       11.8717       -2.0662        4.1991           NaN           NaN           NaN
       3.7500       11.3531       -4.2182        0.1375       11.8274       -3.9121       -1.2602       10.5706       -4.1389        1.8499        7.1198        1.6504        3.2363       11.9058       -2.0791        4.1909           NaN           NaN           NaN
       3.8000       12.4109       -3.4816        0.6920       11.6230       -3.6956        0.1813       11.4628       -3.6371        3.0669        6.9278        1.7008        3.3566       12.4437       -1.6296        3.3271           NaN           NaN           NaN
       3.8500       11.5071       -4.5103        2.0378       11.8969       -5.0755        0.5157       11.8117       -3.2228        2.8443        7.7378        1.3062        3.1075       12.3759       -1.6623        3.5940           NaN           NaN           NaN
       3.9000       12.0711       -3.4673        1.4557       12.1924       -5.6483        1.0814       11.6740       -3.1929        2.7973        7.7594        0.9831        3.1086       12.0258       -2.2676        3.2758           NaN           NaN           NaN
       3.9500       11.8206       -2.4301        1.1726       11.8576       -6.5257        0.8641       11.7152       -3.5072        3.1799        7.2846        0.7787        2.6539       11.7432       -2.0460        4.0124           NaN           NaN           NaN
       4.0000       12.0925       -1.9781        1.2866       11.5215       -6.1503        1.7682       11.7261       -3.7297        2.3393        7.3888        0.8344        2.7793       11.3712       -2.1371        4.2638           NaN           NaN           NaN
       4.0500       12.2400       -1.6490        1.1639       11.6038       -5.3224        1.7223       11.3454       -4.1496        1.7993        7.1783        1.1938        2.4983       10.7619       -1.9773        4.2328           NaN           NaN           NaN
       4.1000       12.3839       -2.2809        1.3415       11.4254       -4.9032        1.5530       11.5328       -2.8992        3.4610        8.0444        1.4742        2.7927       10.7026       -1.8008        3.8092           NaN           NaN           NaN
       4.1500       12.0968       -2.2308        1.5171       11.3007       -5.9938        0.9759       11.4289       -3.0754        2.6546        7.5645        1.1115        2.9385       11.1250       -1.6228        2.9896           NaN           NaN           NaN
       4.2000       12.4066       -2.2277        1.0623       11.5224       -7.0974        0.5066       11.5269       -3.2954        2.1089        9.6278        0.3456        2.9034       11.7410       -1.2360        2.2800           NaN           NaN           NaN
       4.2500       12.0761       -2.0964        1.1256       12.4963       -7.0738        0.4260       12.7379       -3.0670        2.7113        9.5950        0.5234        2.9618       10.9730        0.4697        0.7290           NaN           NaN           NaN
       4.3000       12.2377       -2.5005        1.1538       12.6928       -6.6664        0.8065       12.3798       -4.3136        1.1611        9.2417        0.1295        2.3730       11.2539        0.8025        0.9936           NaN           NaN           NaN
       4.3500       11.7644       -2.3946        0.9094       12.5100       -6.8155        1.2278       10.6408       -3.4392        1.6032        9.3407        0.4228        2.7586       10.6816        0.0708        1.1647           NaN           NaN           NaN
       4.4000       11.5089       -2.4561        0.5560       11.8719       -6.5950        1.6959       11.0650       -2.9378        2.1355        9.1477        0.6195        2.2481       11.3587        0.3441        0.9689           NaN           NaN           NaN
       4.4500       11.2645       -2.3919        0.2331       11.9283       -5.5676        1.6788       11.0707       -3.2653        2.0656        9.4594        0.1855        2.0837       11.3267        0.3743        0.6568           NaN           NaN           NaN
       4.5000       11.2742       -3.2185       -0.5274       11.8622       -5.3791        1.5352       12.0911       -4.8937        0.9361        9.6833        0.1319        1.9550       10.9029        0.2146        0.4150           NaN           NaN           NaN
       4.5500       11.3904       -3.5143       -0.8919       11.7447       -5.6387        1.7695       11.6003       -3.2475        1.2615       10.0223       -0.1479        2.1825       10.4358        0.3390        0.7717           NaN           NaN           NaN
       4.6000       10.5457       -3.7371       -1.0551       11.2012       -5.6599        1.6518       11.4641       -2.4149        1.4549        9.3331       -0.1458        1.5967       10.1760        0.2982        1.4193           NaN           NaN           NaN
       4.6500       10.2168       -3.5167       -0.4110       11.0425       -5.7602        1.3833       11.4318       -2.8630        1.4532        8.8140       -1.5717        0.9795        9.9311        0.6630        1.3868           NaN           NaN           NaN
       4.7000       10.5125       -3.0417        0.3450       10.9488       -5.5761        1.3986       10.9602       -3.0390        1.6195        9.0545       -1.7023        0.0605        9.9373        0.1501        2.1281           NaN           NaN           NaN
       4.7500       10.9432       -3.1435       -0.0035       10.7876       -5.2469        1.0900       10.9747       -2.5444        1.5601        9.2372       -0.1539        0.0899        9.7895        0.1561        1.9804           NaN           NaN           NaN
       4.8000       10.9144       -3.6523       -0.0050       10.4797       -5.2349        1.0343       10.7831       -2.1686        1.4402        8.9871        0.6501        0.0271        9.3954        0.5042        2.5311           NaN           NaN           NaN
       4.8500       11.1096       -4.1300        0.0951       10.6461       -5.3482        1.2931       10.5000       -1.8060        1.9665        9.5751        0.9935       -0.3435        8.3126       -0.5533        3.0867           NaN           NaN           NaN
       4.9000       10.8092       -4.4379       -0.3007       10.6009       -4.9763        1.5411       10.2768       -1.5734        2.4958       10.2032        1.2774       -0.4317        8.2107       -0.1555        3.1216           NaN           NaN           NaN
       4.9500       10.7545       -4.0443        0.2372       10.5964       -5.1021        1.3806       11.1279       -2.0558        1.8283       10.9091        0.8036        0.7057        8.6613       -1.0034        3.4749           NaN           NaN           NaN
       5.0000       10.2550       -4.1033        0.4321       10.5399       -4.7443        1.5079        9.6450       -2.7186        2.6439       10.3797        1.3054        1.2194        9.6363       -1.6491        3.1141           NaN           NaN           NaN
       5.0500       10.3954       -3.4878        0.3891       10.6580       -4.7982        1.6441        9.7169       -4.3888        2.1870       10.1953        0.7982        0.8395        9.2361       -1.7446        3.5343           NaN           NaN           NaN
       5.1000       10.2324       -3.8647        0.2206       11.1785       -5.9680        2.0511       10.2267       -5.0567        0.9813       10.7301        0.7901        1.2573        9.6391       -1.7542        3.7250           NaN           NaN           NaN
       5.1500       10.7874       -4.1928        0.0486       11.6608       -6.6390        2.0056        9.2158       -5.4632        1.4706       11.0790        0.4886        1.1849        9.8899       -1.6960        2.9768           NaN           NaN           NaN
       5.2000       11.8445       -3.9185       -0.3581       11.5458       -6.5537        1.8696        8.8722       -5.2994        1.0425       10.8753        0.7819        1.2647       10.0422       -1.5753        2.4739           NaN           NaN           NaN
       5.2500       11.7845       -4.2463       -0.9520       11.5096       -6.7415        1.3971        9.9089       -5.8407        1.4257       10.9454        1.1217        1.8089       10.0036       -1.2467        2.3818           NaN           NaN           NaN